# CIF file generated by openbabel 2.4.90, see http://openbabel.sf.net
data_I
_chemical_name_common ''
_cell_length_a 39.222
_cell_length_b 26.018
_cell_length_c 27.887
_cell_angle_alpha 90
_cell_angle_beta 90
_cell_angle_gamma 90
_space_group_name_H-M_alt 'P 1'
_space_group_name_Hall 'P 1'
loop_
    _symmetry_equiv_pos_as_xyz
    x,y,z
loop_
    _atom_site_label
    _atom_site_type_symbol
    _atom_site_fract_x
    _atom_site_fract_y
    _atom_site_fract_z
    _atom_site_occupancy
    Lv0     Lv   0.25000   0.75000   0.02851   1.000
    Lv1     Lv   0.10521   0.93112   0.51240   1.000
    Lv2     Lv   0.24870   0.96545   0.12953   1.000
    Lv3     Lv   0.91224   0.19762   0.39826   1.000
    Lv4     Lv   0.10312   0.90057   0.98568   1.000
    Lv5     Lv   0.44937   0.42745   0.69762   1.000
    Lv6     Lv   0.85528   0.83722   0.50533   1.000
    Lv7     Lv   0.75040   0.14250   0.65850   1.000
    Lv8     Lv   0.00000   0.00000   0.49470   1.000
    Lv9     Lv   0.99960   0.39250   0.40850   1.000
    Lv10    Lv   0.99517   0.42430   0.65143   1.000
    Lv11    Lv   0.19120   0.83970   0.34440   1.000
    Lv12    Lv   0.05063   0.07255   0.69762   1.000
    Lv13    Lv   0.91674   0.23446   0.85254   1.000
    Lv14    Lv   0.05880   0.08970   0.59440   1.000
    Lv15    Lv   0.10528   0.41278   0.75533   1.000
    Lv16    Lv   0.92667   0.97480   0.37783   1.000
    Lv17    Lv   0.02175   0.08165   0.46390   1.000
    Lv18    Lv   0.14732   0.16730   0.01647   1.000
    Lv19    Lv   0.89479   0.56888   0.01240   1.000
    Lv20    Lv   0.39479   0.56888   0.51240   1.000
    Lv21    Lv   0.35528   0.83722   0.00533   1.000
    Lv22    Lv   0.64472   0.66278   0.50533   1.000
    Lv23    Lv   0.00000   0.50000   0.77851   1.000
    Lv24    Lv   0.89732   0.08270   0.76647   1.000
    Lv25    Lv   0.33776   0.94762   0.14826   1.000
    Lv26    Lv   0.95237   0.41240   0.54850   1.000
    Lv27    Lv   0.74870   0.96545   0.62953   1.000
    Lv28    Lv   0.89479   0.06888   0.51240   1.000
    Lv29    Lv   0.00130   0.21545   0.37953   1.000
    Lv30    Lv   0.60312   0.40057   0.98568   1.000
    Lv31    Lv   0.39472   0.58722   0.25533   1.000
    Lv32    Lv   0.89688   0.59943   0.48568   1.000
    Lv33    Lv   0.35528   0.33722   0.50533   1.000
    Lv34    Lv   0.10312   0.40057   0.48568   1.000
    Lv35    Lv   0.10528   0.91278   0.25533   1.000
    Lv36    Lv   0.79763   0.16240   0.79850   1.000
    Lv37    Lv   0.60528   0.41278   0.25533   1.000
    Lv38    Lv   0.89472   0.58722   0.75533   1.000
    Lv39    Lv   0.64472   0.16278   0.00533   1.000
    Lv40    Lv   0.24870   0.46545   0.62953   1.000
    Lv41    Lv   0.75483   0.67430   0.40143   1.000
    Lv42    Lv   0.25130   0.03455   0.62953   1.000
    Lv43    Lv   0.75000   0.75000   0.74470   1.000
    Lv44    Lv   0.57333   0.02520   0.87783   1.000
    Lv45    Lv   0.66224   0.05238   0.14826   1.000
    Lv46    Lv   0.50130   0.71545   0.37953   1.000
    Lv47    Lv   0.64479   0.18112   0.26240   1.000
    Lv48    Lv   0.27175   0.16835   0.71390   1.000
    Lv49    Lv   0.80880   0.16030   0.34440   1.000
    Lv50    Lv   0.25130   0.53455   0.12953   1.000
    Lv51    Lv   0.10268   0.41730   0.26647   1.000
    Lv52    Lv   0.89732   0.58270   0.26647   1.000
    Lv53    Lv   0.25000   0.25000   0.52851   1.000
    Lv54    Lv   0.75000   0.75000   0.52851   1.000
    Lv55    Lv   0.99870   0.78455   0.37953   1.000
    Lv56    Lv   0.14479   0.68112   0.26240   1.000
    Lv57    Lv   0.19937   0.82255   0.44762   1.000
    Lv58    Lv   0.83776   0.44762   0.14826   1.000
    Lv59    Lv   0.91224   0.69762   0.89826   1.000
    Lv60    Lv   0.08776   0.30238   0.89826   1.000
    Lv61    Lv   0.30063   0.67745   0.44762   1.000
    Lv62    Lv   0.16224   0.55238   0.14826   1.000
    Lv63    Lv   0.69937   0.32255   0.44762   1.000
    Lv64    Lv   0.72825   0.83165   0.71390   1.000
    Lv65    Lv   0.14472   0.66278   0.00533   1.000
    Lv66    Lv   0.58776   0.30238   0.39826   1.000
    Lv67    Lv   0.54763   0.58760   0.04850   1.000
    Lv68    Lv   0.43750   0.89650   0.39450   1.000
    Lv69    Lv   0.99960   0.89250   0.90850   1.000
    Lv70    Lv   0.30880   0.16030   0.84440   1.000
    Lv71    Lv   0.74960   0.85750   0.15850   1.000
    Lv72    Lv   0.14472   0.16278   0.50533   1.000
    Lv73    Lv   0.41224   0.69762   0.39826   1.000
    Lv74    Lv   0.83326   0.98446   0.10254   1.000
    Lv75    Lv   0.16674   0.01554   0.10254   1.000
    Lv76    Lv   0.74870   0.46545   0.12953   1.000
    Lv77    Lv   0.89472   0.08722   0.25533   1.000
    Lv78    Lv   0.06250   0.60350   0.39450   1.000
    Lv79    Lv   0.55063   0.07255   0.19762   1.000
    Lv80    Lv   0.41674   0.23446   0.35254   1.000
    Lv81    Lv   0.75130   0.53455   0.62953   1.000
    Lv82    Lv   0.67667   0.77520   0.62783   1.000
    Lv83    Lv   0.75130   0.03455   0.12953   1.000
    Lv84    Lv   0.33776   0.44762   0.64826   1.000
    Lv85    Lv   0.70237   0.83760   0.29850   1.000
    Lv86    Lv   0.33326   0.48446   0.10254   1.000
    Lv87    Lv   0.75000   0.25000   0.02851   1.000
    Lv88    Lv   0.85268   0.83270   0.01647   1.000
    Lv89    Lv   0.04763   0.58760   0.54850   1.000
    Lv90    Lv   0.54763   0.08760   0.54850   1.000
    Lv91    Lv   0.45237   0.91240   0.54850   1.000
    Lv92    Lv   0.94120   0.91030   0.59440   1.000
    Lv93    Lv   0.55880   0.58970   0.59440   1.000
    Lv94    Lv   0.44120   0.41030   0.59440   1.000
    Lv95    Lv   0.35268   0.83270   0.51647   1.000
    Lv96    Lv   0.60268   0.91730   0.26647   1.000
    Lv97    Lv   0.66224   0.55238   0.64826   1.000
    Lv98    Lv   0.92667   0.47480   0.87783   1.000
    Lv99    Lv   0.14732   0.66730   0.51647   1.000
    Lv100   Lv   0.58326   0.26554   0.85254   1.000
    Lv101   Lv   0.08326   0.76554   0.85254   1.000
    Lv102   Lv   0.41674   0.73446   0.85254   1.000
    Lv103   Lv   0.19120   0.33970   0.84440   1.000
    Lv104   Lv   0.80880   0.66030   0.84440   1.000
    Lv105   Lv   0.69120   0.83970   0.84440   1.000
    Lv106   Lv   0.41224   0.19762   0.89826   1.000
    Lv107   Lv   0.58776   0.80238   0.89826   1.000
    Lv108   Lv   0.00130   0.71545   0.87953   1.000
    Lv109   Lv   0.49870   0.78455   0.87953   1.000
    Lv110   Lv   0.99870   0.28455   0.87953   1.000
    Lv111   Lv   0.50130   0.21545   0.87953   1.000
    Lv112   Lv   0.25000   0.25000   0.74470   1.000
    Lv113   Lv   0.64732   0.16730   0.51647   1.000
    Lv114   Lv   0.10521   0.43112   0.01240   1.000
    Lv115   Lv   0.35521   0.81888   0.26240   1.000
    Lv116   Lv   0.35268   0.33270   0.01647   1.000
    Lv117   Lv   0.85268   0.33270   0.51647   1.000
    Lv118   Lv   0.32333   0.72480   0.12783   1.000
    Lv119   Lv   0.25483   0.67430   0.90143   1.000
    Lv120   Lv   0.92920   0.98990   0.88270   1.000
    Lv121   Lv   0.47825   0.91835   0.96390   1.000
    Lv122   Lv   0.83776   0.94762   0.64826   1.000
    Lv123   Lv   0.95237   0.91240   0.04850   1.000
    Lv124   Lv   0.39688   0.59943   0.98568   1.000
    Lv125   Lv   0.47825   0.41835   0.46390   1.000
    Lv126   Lv   0.85521   0.81888   0.76240   1.000
    Lv127   Lv   0.69937   0.82255   0.94762   1.000
    Lv128   Lv   0.00483   0.57570   0.65143   1.000
    Lv129   Lv   0.42667   0.97480   0.87783   1.000
    Lv130   Lv   0.08776   0.80238   0.39826   1.000
    Lv131   Lv   0.32333   0.22480   0.62783   1.000
    Lv132   Lv   0.64688   0.15057   0.73568   1.000
    Lv133   Lv   0.00270   0.54240   0.28090   1.000
    Lv134   Lv   0.49730   0.45760   0.78090   1.000
    Lv135   Lv   0.39688   0.09943   0.48568   1.000
    Lv136   Lv   0.67667   0.27520   0.12783   1.000
    Lv137   Lv   0.60521   0.93112   0.01240   1.000
    Lv138   Lv   0.85521   0.31888   0.26240   1.000
    Lv139   Lv   0.19937   0.32255   0.94762   1.000
    Lv140   Lv   0.72825   0.33165   0.21390   1.000
    Lv141   Lv   0.39472   0.08722   0.75533   1.000
    Lv142   Lv   0.80063   0.67745   0.94762   1.000
    Lv143   Lv   0.75483   0.17430   0.90143   1.000
    Lv144   Lv   0.10268   0.91730   0.76647   1.000
    Lv145   Lv   0.97825   0.91835   0.46390   1.000
    Lv146   Lv   0.05063   0.57255   0.19762   1.000
    Lv147   Lv   0.94937   0.42745   0.19762   1.000
    Lv148   Lv   0.16224   0.05238   0.64826   1.000
    Lv149   Lv   0.39732   0.58270   0.76647   1.000
    Lv150   Lv   0.39479   0.06888   0.01240   1.000
    Lv151   Lv   0.07333   0.52520   0.87783   1.000
    Lv152   Lv   0.64732   0.66730   0.01647   1.000
    Lv153   Lv   0.35521   0.31888   0.76240   1.000
    Lv154   Lv   0.24517   0.82570   0.90143   1.000
    Lv155   Lv   0.49960   0.89250   0.40850   1.000
    Lv156   Lv   0.04763   0.08760   0.04850   1.000
    Lv157   Lv   0.39732   0.08270   0.26647   1.000
    Lv158   Lv   0.80063   0.17745   0.44762   1.000
    Lv159   Lv   0.00040   0.60750   0.40850   1.000
    Lv160   Lv   0.67920   0.76010   0.13270   1.000
    Lv161   Lv   0.50483   0.07570   0.65143   1.000
    Lv162   Lv   0.79763   0.66240   0.29850   1.000
    Lv163   Lv   0.02175   0.58165   0.96390   1.000
    Lv164   Lv   0.35312   0.84943   0.73568   1.000
    Lv165   Lv   0.30063   0.17745   0.94762   1.000
    Lv166   Lv   0.99517   0.92430   0.15143   1.000
    Lv167   Lv   0.25040   0.14250   0.15850   1.000
    Lv168   Lv   0.50000   0.00000   0.77851   1.000
    Lv169   Lv   0.14479   0.18112   0.76240   1.000
    Lv170   Lv   0.24730   0.79240   0.53090   1.000
    Lv171   Lv   0.42667   0.47480   0.37783   1.000
    Lv172   Lv   0.64479   0.68112   0.76240   1.000
    Lv173   Lv   0.64688   0.65057   0.23568   1.000
    Lv174   Lv   0.75040   0.64250   0.15850   1.000
    Lv175   Lv   0.85312   0.34943   0.73568   1.000
    Lv176   Lv   0.83326   0.48446   0.60254   1.000
    Lv177   Lv   0.50483   0.57570   0.15143   1.000
    Lv178   Lv   0.49870   0.28455   0.37953   1.000
    Lv179   Lv   0.00483   0.07570   0.15143   1.000
    Lv180   Lv   0.74960   0.35750   0.65850   1.000
    Lv181   Lv   0.44120   0.91030   0.09440   1.000
    Lv182   Lv   0.81250   0.64650   0.14450   1.000
    Lv183   Lv   0.49517   0.92430   0.65143   1.000
    Lv184   Lv   0.85312   0.84943   0.23568   1.000
    Lv185   Lv   0.60312   0.90057   0.48568   1.000
    Lv186   Lv   0.31250   0.14650   0.14450   1.000
    Lv187   Lv   0.58326   0.76554   0.35254   1.000
    Lv188   Lv   0.30880   0.66030   0.34440   1.000
    Lv189   Lv   0.60521   0.43112   0.51240   1.000
    Lv190   Lv   0.08326   0.26554   0.35254   1.000
    Lv191   Lv   0.68750   0.85350   0.14450   1.000
    Lv192   Lv   0.25040   0.64250   0.65850   1.000
    Lv193   Lv   0.35312   0.34943   0.23568   1.000
    Lv194   Lv   0.17667   0.27520   0.62783   1.000
    Lv195   Lv   0.14688   0.65057   0.73568   1.000
    Lv196   Lv   0.85528   0.33722   0.00533   1.000
    Lv197   Lv   0.24730   0.29240   0.03090   1.000
    Lv198   Lv   0.56250   0.10350   0.39450   1.000
    Lv199   Lv   0.66674   0.51554   0.10254   1.000
    Lv200   Lv   0.82333   0.22480   0.12783   1.000
    Lv201   Lv   0.50000   0.50000   0.27851   1.000
    Lv202   Lv   0.33326   0.98446   0.60254   1.000
    Lv203   Lv   0.89688   0.09943   0.98568   1.000
    Lv204   Lv   0.44937   0.92745   0.19762   1.000
    Lv205   Lv   0.24960   0.35750   0.15850   1.000
    Lv206   Lv   0.68750   0.35350   0.64450   1.000
    Lv207   Lv   0.75270   0.70760   0.03090   1.000
    Lv208   Lv   0.45237   0.41240   0.04850   1.000
    Lv209   Lv   0.55063   0.57255   0.69762   1.000
    Lv210   Lv   0.69120   0.33970   0.34440   1.000
    Lv211   Lv   0.00270   0.04240   0.78090   1.000
    Lv212   Lv   0.17667   0.77520   0.12783   1.000
    Lv213   Lv   0.05880   0.58970   0.09440   1.000
    Lv214   Lv   0.75270   0.20760   0.53090   1.000
    Lv215   Lv   0.94120   0.41030   0.09440   1.000
    Lv216   Lv   0.20237   0.83760   0.79850   1.000
    Lv217   Lv   0.74517   0.82570   0.40143   1.000
    Lv218   Lv   0.14688   0.15057   0.23568   1.000
    Lv219   Lv   0.49960   0.39250   0.90850   1.000
    Lv220   Lv   0.25483   0.17430   0.40143   1.000
    Lv221   Lv   0.24960   0.85750   0.65850   1.000
    Lv222   Lv   0.93750   0.89650   0.89450   1.000
    Lv223   Lv   0.60528   0.91278   0.75533   1.000
    Lv224   Lv   0.81250   0.14650   0.64450   1.000
    Lv225   Lv   0.92920   0.48990   0.38270   1.000
    Lv226   Lv   0.60268   0.41730   0.76647   1.000
    Lv227   Lv   0.42920   0.98990   0.38270   1.000
    Lv228   Lv   0.82333   0.72480   0.62783   1.000
    Lv229   Lv   0.55880   0.08970   0.09440   1.000
    Lv230   Lv   0.67920   0.26010   0.63270   1.000
    Lv231   Lv   0.20237   0.33760   0.29850   1.000
    Lv232   Lv   0.24517   0.32570   0.40143   1.000
    Lv233   Lv   0.29763   0.16240   0.29850   1.000
    Lv234   Lv   0.56250   0.60350   0.89450   1.000
    Lv235   Lv   0.07080   0.51010   0.38270   1.000
    Lv236   Lv   0.74517   0.32570   0.90143   1.000
    Lv237   Lv   0.74730   0.79240   0.03090   1.000
    Lv238   Lv   0.94937   0.92745   0.69762   1.000
    Lv239   Lv   0.75000   0.25000   0.24470   1.000
    Lv240   Lv   0.66674   0.01554   0.60254   1.000
    Lv241   Lv   0.43750   0.39650   0.89450   1.000
    Lv242   Lv   0.91674   0.73446   0.35254   1.000
    Lv243   Lv   0.49517   0.42430   0.15143   1.000
    Lv244   Lv   0.18750   0.35350   0.14450   1.000
    Lv245   Lv   0.06250   0.10350   0.89450   1.000
    Lv246   Lv   0.16674   0.51554   0.60254   1.000
    Lv247   Lv   0.00000   0.00000   0.27851   1.000
    Lv248   Lv   0.52175   0.58165   0.46390   1.000
    Lv249   Lv   0.74730   0.29240   0.53090   1.000
    Lv250   Lv   0.32080   0.73990   0.63270   1.000
    Lv251   Lv   0.57080   0.01010   0.38270   1.000
    Lv252   Lv   0.50270   0.04240   0.28090   1.000
    Lv253   Lv   0.70237   0.33760   0.79850   1.000
    Lv254   Lv   0.07333   0.02520   0.37783   1.000
    Lv255   Lv   0.99730   0.45760   0.28090   1.000
    Lv256   Lv   0.22825   0.83165   0.21390   1.000
    Lv257   Lv   0.25270   0.20760   0.03090   1.000
    Lv258   Lv   0.57333   0.52520   0.37783   1.000
    Lv259   Lv   0.18750   0.85350   0.64450   1.000
    Lv260   Lv   0.29763   0.66240   0.79850   1.000
    Lv261   Lv   0.49730   0.95760   0.28090   1.000
    Lv262   Lv   0.00040   0.10750   0.90850   1.000
    Lv263   Lv   0.42920   0.48990   0.88270   1.000
    Lv264   Lv   0.93750   0.39650   0.39450   1.000
    Lv265   Lv   0.52175   0.08165   0.96390   1.000
    Lv266   Lv   0.50040   0.60750   0.90850   1.000
    Lv267   Lv   0.77175   0.16835   0.21390   1.000
    Lv268   Lv   0.82080   0.73990   0.13270   1.000
    Lv269   Lv   0.27175   0.66835   0.21390   1.000
    Lv270   Lv   0.50000   0.00000   0.99470   1.000
    Lv271   Lv   0.77175   0.66835   0.71390   1.000
    Lv272   Lv   0.50040   0.10750   0.40850   1.000
    Lv273   Lv   0.57080   0.51010   0.88270   1.000
    Lv274   Lv   0.31250   0.64650   0.64450   1.000
    Lv275   Lv   0.17920   0.76010   0.63270   1.000
    Lv276   Lv   0.22825   0.33165   0.71390   1.000
    Lv277   Lv   0.99730   0.95760   0.78090   1.000
    Lv278   Lv   0.25000   0.75000   0.24470   1.000
    Lv279   Lv   0.82080   0.23990   0.63270   1.000
    Lv280   Lv   0.97825   0.41835   0.96390   1.000
    Lv281   Lv   0.50000   0.50000   0.49470   1.000
    Lv282   Lv   0.25270   0.70760   0.53090   1.000
    Lv283   Lv   0.07080   0.01010   0.88270   1.000
    Lv284   Lv   0.17920   0.26010   0.13270   1.000
    Lv285   Lv   0.00000   0.50000   0.99470   1.000
    Lv286   Lv   0.32080   0.23990   0.13270   1.000
    Lv287   Lv   0.50270   0.54240   0.78090   1.000
