data_functionalizedCrystal
_audit_creation_method	'MofGen! by Chris Wilmer'
_symmetry_space_group_name_H-M	'P1'
_symmetry_Int_Tables_number	1
_symmetry_cell_setting	triclinic
loop_
_symmetry_equiv_pos_as_xyz
  x,y,z
_cell_length_a	15.944499
_cell_length_b	15.944551
_cell_length_c	14.421503
_cell_angle_alpha	90.000609
_cell_angle_beta	90.004491
_cell_angle_gamma	83.488174
loop_
_atom_site_label
_atom_site_type_symbol
_atom_site_fract_x
_atom_site_fract_y
_atom_site_fract_z
O1	O	1.114538	0.108119	-0.077169
O2	O	0.869982	0.121521	-0.077159
O3	O	0.998938	-0.007456	-0.077156
O4	O	0.985582	0.237096	-0.077172
O5	O	0.998954	-0.007448	0.077067
O6	O	0.869998	0.121529	0.077064
O7	O	1.114553	0.108127	0.077054
Cu8	Cu	0.992277	0.114829	0.091141
Cu9	Cu	0.992259	0.114819	-0.091246
O10	O	0.985597	0.237104	0.077051
C11	C	0.838695	0.120976	-0.000046
C12	C	0.745447	0.119331	-0.000042
C13	C	0.453911	0.194263	-0.000061
C14	C	0.514933	0.155308	-0.076100
C15	C	0.409810	0.113355	-0.000063
C16	C	0.514934	0.155294	0.075952
C17	C	0.574719	0.116296	-0.000051
C18	C	0.469604	0.074377	-0.076165
C19	C	0.469599	0.074375	0.075955
C20	C	0.530603	0.035360	-0.000102
C21	C	0.314810	0.111663	-0.000071
C22	C	0.669718	0.117981	-0.000050
C23	C	0.998392	-0.038746	-0.000044
C24	C	0.996729	-0.131992	-0.000044
C25	C	0.912823	-0.346833	-0.000053
C26	C	0.951794	-0.407853	0.075987
C27	C	0.993722	-0.302717	-0.000051
C28	C	0.951798	-0.407845	-0.076065
C29	C	0.990811	-0.467629	-0.000061
C30	C	1.032715	-0.362509	0.076052
C31	C	1.032708	-0.362494	-0.076069
C32	C	1.071737	-0.423497	-0.000010
C33	C	0.995397	-0.207715	-0.000044
C34	C	0.989143	-0.562630	-0.000062
C35	C	1.145840	0.108672	-0.000061
C36	C	1.239089	0.110317	-0.000071
C37	C	0.986144	0.268394	-0.000063
C38	C	0.987806	0.361640	-0.000069
N39	N	0.992296	0.114835	0.219422
N40	N	0.992246	0.114806	-0.219527
C41	C	1.051938	0.055183	0.469053
C42	C	0.976037	0.038880	0.530854
C43	C	0.992277	0.114825	0.408584
C44	C	1.068161	0.131079	0.530876
C45	C	0.992266	0.114813	0.591305
C46	C	0.916338	0.098485	0.469024
C47	C	1.008512	0.190717	0.469041
C48	C	0.932556	0.174446	0.530815
C49	C	0.992285	0.114830	0.303323
C50	C	0.992250	0.114810	0.696564
H51	H	0.449489	0.040185	0.140247
N52	N	0.540147	0.198213	-0.156756
N53	N	0.524739	0.171386	-0.235675
H54	H	0.542546	0.201691	-0.292637
N55	N	1.115166	-0.008109	0.435006
N56	N	1.173821	0.012427	0.385438
H57	H	1.218473	-0.032274	0.361390
N58	N	0.869183	0.237711	0.564619
N59	N	0.793368	0.234296	0.544602
H60	H	0.748608	0.278973	0.568478
H61	H	1.138946	-0.456668	0.000030
N62	N	0.908857	-0.433028	-0.156720
N63	N	0.935655	-0.417596	-0.235640
H64	H	0.905324	-0.435377	-0.292600
H65	H	0.852145	0.084659	0.441970
N66	N	0.412091	0.278493	-0.000179
N67	N	0.363080	0.302746	-0.064888
H68	H	0.333543	0.362231	-0.064979
N69	N	1.025787	0.271211	0.434961
N70	N	1.093939	0.298706	0.454748
H71	H	1.106149	0.355556	0.430678
H72	H	1.066889	-0.342374	-0.140360
N73	N	0.540124	0.198253	0.156589
N74	N	0.512323	0.273746	0.170113
H75	H	0.530110	0.304092	0.227060
N76	N	0.958802	-0.041641	0.564908
N77	N	1.007177	-0.106416	0.545114
H78	H	0.995010	-0.163287	0.569160
N79	N	0.444545	0.031465	-0.156893
N80	N	0.407691	-0.033266	-0.148589
H81	H	0.389991	-0.063572	-0.205602
N82	N	0.572225	-0.048948	-0.000157
N83	N	0.560523	-0.097796	-0.065502
H84	H	0.589919	-0.157339	-0.065546
N85	N	0.828582	-0.305040	0.000048
N86	N	0.779629	-0.316884	0.065242
H87	H	0.720135	-0.287368	0.065317
N88	N	1.148666	0.148331	0.564976
N89	N	1.190954	0.095808	0.615675
H90	H	1.247812	0.107986	0.639758
N91	N	0.908871	-0.433062	0.156632
N92	N	0.833376	-0.405284	0.170184
H93	H	0.803055	-0.423085	0.227137
H94	H	1.066910	-0.342522	0.140408
