data_functionalizedCrystal
_audit_creation_method	'MofGen! by Chris Wilmer'
_symmetry_space_group_name_H-M	'P1'
_symmetry_Int_Tables_number	1
_symmetry_cell_setting	triclinic
loop_
_symmetry_equiv_pos_as_xyz
  x,y,z
_cell_length_a	19.188930
_cell_length_b	15.944551
_cell_length_c	15.021413
_cell_angle_alpha	90.003065
_cell_angle_beta	89.978833
_cell_angle_gamma	83.321759
loop_
_atom_site_label
_atom_site_type_symbol
_atom_site_fract_x
_atom_site_fract_y
_atom_site_fract_z
O1	O	0.926420	0.104855	-0.074320
O2	O	0.723145	0.118971	-0.074259
O3	O	0.830333	-0.010383	-0.074283
O4	O	0.819231	0.234209	-0.074296
O5	O	0.830316	-0.010364	0.073781
O6	O	0.723128	0.118990	0.073805
O7	O	0.926403	0.104873	0.073744
Zn8	Zn	0.824763	0.111934	0.097283
Zn9	Zn	0.824785	0.111910	-0.097798
O10	O	0.819214	0.234227	0.073768
C11	C	0.829864	-0.041666	-0.000251
C12	C	0.828482	-0.134906	-0.000250
C13	C	0.697124	0.118524	-0.000219
C14	C	0.619616	0.117151	-0.000196
C15	C	0.758739	-0.349502	-0.000242
C16	C	0.791117	-0.410631	0.072753
C17	C	0.825983	-0.305623	-0.000256
C18	C	0.791150	-0.410633	-0.073226
C19	C	0.823563	-0.470527	-0.000266
C20	C	0.858379	-0.365524	0.072799
C21	C	0.858402	-0.365519	-0.073246
C22	C	0.890829	-0.426631	-0.000234
C23	C	0.827374	-0.210626	-0.000250
C24	C	0.822176	-0.565522	-0.000266
C25	C	0.574889	0.193052	-0.000214
C26	C	0.502061	0.191763	-0.000224
C27	C	0.473965	0.114568	-0.000233
C28	C	0.518703	0.038658	-0.000210
C29	C	0.591528	0.039949	-0.000192
N30	N	0.365838	0.055557	-0.050659
N31	N	0.296657	0.054335	-0.050678
C32	C	0.254547	0.110673	-0.000288
N33	N	0.284230	0.168291	0.050112
N34	N	0.353418	0.169515	0.050128
C35	C	0.394999	0.113160	-0.000253
C36	C	0.130851	0.185181	-0.000315
C37	C	0.058023	0.183888	-0.000319
C38	C	0.074666	0.030781	-0.000315
C39	C	0.147492	0.032076	-0.000302
C40	C	0.175580	0.109278	-0.000306
C41	C	0.952423	0.105321	-0.000298
C42	C	1.029932	0.106693	-0.000327
C43	C	0.819684	0.265510	-0.000266
C44	C	0.821066	0.358751	-0.000273
N45	N	0.824752	0.111951	0.230420
N46	N	0.824801	0.111887	-0.230936
C47	C	0.775181	0.171736	0.470115
C48	C	0.838271	0.187807	0.529429
C49	C	0.824770	0.111929	0.412027
C50	C	0.761697	0.095877	0.529455
C51	C	0.824782	0.111911	0.587451
C52	C	0.887892	0.128038	0.470035
C53	C	0.811277	0.036076	0.470056
C54	C	0.874413	0.052114	0.529343
C55	C	0.824763	0.111942	0.310970
C56	C	0.824797	0.111898	0.688507
H57	H	0.702924	-0.315986	-0.000152
Cl58	Cl	0.710501	0.249881	0.429956
Cl59	Cl	0.445822	0.287188	-0.000244
H60	H	0.941248	0.141684	0.444045
Cl61	Cl	0.679339	0.074925	0.569753
H62	H	0.183911	-0.029731	-0.000292
H63	H	0.495822	-0.024194	-0.000230
H64	H	0.946693	-0.459999	-0.000209
H65	H	0.762669	-0.430626	0.134481
Cl66	Cl	0.855909	0.286832	0.569696
Cl67	Cl	0.647761	-0.055477	-0.000170
Cl68	Cl	0.939234	-0.025987	0.569251
Cl69	Cl	0.001792	0.279316	-0.000337
H70	H	0.153721	0.248043	-0.000305
H71	H	0.886789	-0.345632	0.134578
Cl72	Cl	0.039352	-0.066264	-0.000316
H73	H	0.799834	-0.028043	0.443955
Cl74	Cl	0.902287	-0.334612	-0.168555
H75	H	0.762707	-0.430611	-0.134942
H76	H	0.597753	0.255916	-0.000219
