data_functionalizedCrystal
_audit_creation_method	'MofGen! by Chris Wilmer'
_symmetry_space_group_name_H-M	'P1'
_symmetry_Int_Tables_number	1
_symmetry_cell_setting	triclinic
loop_
_symmetry_equiv_pos_as_xyz
  x,y,z
_cell_length_a	18.050591
_cell_length_b	18.050590
_cell_length_c	18.215399
_cell_angle_alpha	90.028735
_cell_angle_beta	90.025700
_cell_angle_gamma	90.014558
loop_
_atom_site_label
_atom_site_type_symbol
_atom_site_fract_x
_atom_site_fract_y
_atom_site_fract_z
Zn1	Zn	1.135377	-0.295746	0.416227
Zn2	Zn	1.135299	-0.419941	0.293159
Zn3	Zn	1.011186	-0.295761	0.293162
Zn4	Zn	1.011166	-0.419890	0.416171
O5	O	1.073257	-0.357835	0.354680
O6	O	1.239292	-0.312236	0.399924
O7	O	1.118811	-0.403496	0.190175
O8	O	1.027702	-0.191834	0.309511
O9	O	1.239234	-0.403482	0.309506
O10	O	1.118945	-0.191823	0.399927
O11	O	1.027626	-0.312261	0.190177
O12	O	0.907259	-0.312212	0.309457
O13	O	1.027667	-0.403395	0.519163
O14	O	0.907244	-0.403409	0.399832
O15	O	1.118925	-0.312187	0.519204
O16	O	1.118791	-0.523859	0.309452
O17	O	1.027591	-0.523822	0.399829
C18	C	0.880305	-0.357807	0.354639
C19	C	0.797759	-0.357813	0.354639
C20	C	0.598295	-0.308162	0.305607
C21	C	0.548885	-0.375900	0.287495
C22	C	0.646629	-0.357835	0.354672
C23	C	0.548957	-0.290121	0.372782
C24	C	0.500644	-0.357851	0.354703
C25	C	0.598306	-0.425609	0.336526
C26	C	0.598382	-0.339784	0.421844
C27	C	0.548995	-0.407569	0.403758
C28	C	0.730727	-0.357825	0.354653
C29	C	0.416547	-0.357869	0.354723
C30	C	1.073200	-0.550787	0.354650
C31	C	1.073243	-0.633332	0.354663
C32	C	1.122941	-0.832776	0.305584
C33	C	1.141082	-0.882110	0.372753
C34	C	1.073286	-0.784463	0.354692
C35	C	1.055220	-0.882211	0.287553
C36	C	1.073328	-0.930448	0.354714
C37	C	1.091462	-0.832709	0.421896
C38	C	1.005568	-0.832806	0.336651
C39	C	1.023683	-0.882117	0.403866
C40	C	1.073263	-0.700365	0.354678
C41	C	1.073350	-1.014544	0.354736
C42	C	1.266963	-0.357863	0.354721
C43	C	1.349508	-0.357875	0.354739
C44	C	1.073302	-0.357783	0.546633
C45	C	1.073322	-0.357762	0.628432
C46	C	1.073335	-0.164129	0.354725
C47	C	1.073368	-0.081583	0.354745
C48	C	1.073255	-0.357832	0.163474
C49	C	1.073379	-0.357645	0.081675
C50	C	1.120857	-0.310225	0.816648
C51	C	1.120865	-0.310203	0.893507
C52	C	1.025839	-0.405183	0.893453
C53	C	1.025827	-0.405200	0.816596
C54	C	1.073340	-0.357723	0.778195
C55	C	1.073361	-0.357684	0.931912
C56	C	1.073370	-0.357660	1.015245
C57	C	1.073330	-0.357744	0.694856
H58	H	0.619942	-0.266201	0.264068
H59	H	0.987128	-0.443878	0.785287
C60	C	1.172463	-0.258592	0.775088
C61	C	1.214062	-0.216977	0.825218
C62	C	1.261602	-0.169395	0.786963
H63	H	1.204874	-0.286926	0.745105
H64	H	1.144076	-0.226198	0.745123
H65	H	1.242447	-0.249367	0.855171
H66	H	1.181671	-0.188628	0.855203
H67	H	1.233215	-0.137001	0.756997
H68	H	1.294008	-0.197735	0.756981
H69	H	1.289828	-0.141149	0.820970
H70	H	0.527484	-0.449631	0.445264
H71	H	1.039923	-0.903954	0.230766
C72	C	0.519931	-0.396132	0.211719
C73	C	0.544889	-0.343934	0.160553
C74	C	0.518226	-0.362537	0.090742
H75	H	0.537537	-0.443875	0.198427
H76	H	0.467303	-0.396401	0.212361
H77	H	0.597506	-0.343672	0.159909
H78	H	0.527285	-0.296187	0.173821
H79	H	0.465598	-0.362806	0.091384
H80	H	0.535833	-0.410280	0.077457
H81	H	0.535150	-0.327120	0.056019
H82	H	1.159557	-0.271525	0.924812
H83	H	1.164947	-0.811111	0.264099
C84	C	0.967618	-0.910873	0.459194
C85	C	0.914229	-0.953580	0.422828
C86	C	0.862570	-0.980076	0.473772
H87	H	0.992179	-0.940515	0.494741
H88	H	0.944219	-0.870227	0.482867
H89	H	0.937626	-0.994220	0.399167
H90	H	0.889651	-0.923954	0.387285
H91	H	0.839171	-0.939431	0.497445
H92	H	0.887137	-1.009716	0.509316
H93	H	0.826336	-1.009050	0.449104
C94	C	0.974341	-0.456704	0.935280
C95	C	0.984535	-0.446539	1.010819
C96	C	0.937115	-0.493997	1.049370
H97	H	0.924414	-0.445880	0.922762
H98	H	0.985197	-0.506623	0.922715
H99	H	0.973674	-0.396632	1.023379
H100	H	1.034452	-0.457369	1.023359
H101	H	0.947971	-0.543916	1.036805
H102	H	0.887191	-0.483169	1.036847
H103	H	0.944030	-0.487112	1.100628
C104	C	0.627228	-0.501936	0.316006
C105	C	0.704789	-0.501024	0.316182
C106	C	0.731458	-0.571318	0.297272
H107	H	0.610032	-0.537316	0.350623
H108	H	0.609910	-0.514853	0.268430
H109	H	0.722100	-0.488116	0.363751
H110	H	0.722005	-0.465659	0.281564
H111	H	0.714141	-0.584235	0.249696
H112	H	0.714257	-0.606692	0.331891
H113	H	0.784086	-0.570707	0.297382
H114	H	0.948299	-0.811131	0.321357
H115	H	0.527241	-0.232857	0.388061
C116	C	0.627360	-0.319235	0.497523
C117	C	0.602415	-0.248244	0.516185
C118	C	0.629104	-0.229276	0.585890
H119	H	0.609763	-0.353963	0.532588
H120	H	0.679987	-0.319783	0.497077
H121	H	0.549798	-0.247701	0.516636
H122	H	0.620010	-0.213500	0.481139
H123	H	0.681732	-0.229824	0.585444
H124	H	0.611506	-0.264008	0.620949
H125	H	0.612189	-0.181104	0.598558
H126	H	1.198368	-0.903769	0.388027
H127	H	1.106702	-0.811058	0.478732
