data_functionalizedCrystal
_audit_creation_method	'MofGen! by Chris Wilmer'
_symmetry_space_group_name_H-M	'P1'
_symmetry_Int_Tables_number	1
_symmetry_cell_setting	triclinic
loop_
_symmetry_equiv_pos_as_xyz
  x,y,z
_cell_length_a	13.897449
_cell_length_b	12.594516
_cell_length_c	12.594509
_cell_angle_alpha	89.972125
_cell_angle_beta	89.980142
_cell_angle_gamma	90.013095
loop_
_atom_site_label
_atom_site_type_symbol
_atom_site_fract_x
_atom_site_fract_y
_atom_site_fract_z
Zn1	Zn	1.474734	-0.423674	-0.601821
Zn2	Zn	1.974734	0.076326	-0.101821
Zn3	Zn	1.474647	-0.601684	-0.423844
Zn4	Zn	1.974647	-0.101684	0.076156
Zn5	Zn	1.313425	-0.423724	-0.423854
Zn6	Zn	1.813425	0.076276	0.076146
Zn7	Zn	1.313421	-0.601615	-0.601778
Zn8	Zn	1.813421	-0.101615	-0.101778
O9	O	1.394057	-0.512674	-0.512824
O10	O	1.894057	-0.012674	-0.012824
O11	O	1.609704	-0.447295	-0.578225
O12	O	2.109704	0.052705	-0.078225
O13	O	1.453226	-0.578127	-0.274899
O14	O	1.953226	-0.078127	0.225101
O15	O	1.334861	-0.274771	-0.447485
O16	O	1.834861	0.225229	0.052515
O17	O	1.609640	-0.578079	-0.447466
O18	O	2.109640	-0.078079	0.052534
O19	O	1.453374	-0.274735	-0.578236
O20	O	1.953374	0.225265	-0.078236
O21	O	1.334777	-0.447381	-0.274907
O22	O	1.834777	0.052619	0.225093
O23	O	1.178443	-0.447313	-0.447443
O24	O	1.678443	0.052687	0.052557
O25	O	1.334854	-0.577960	-0.750730
O26	O	1.834854	-0.077960	-0.250730
O27	O	1.178440	-0.578009	-0.578163
O28	O	1.678440	-0.078009	-0.078163
O29	O	1.453370	-0.447228	-0.750761
O30	O	1.953370	0.052772	-0.250761
O31	O	1.453222	-0.750620	-0.447425
O32	O	1.953222	-0.250620	0.052575
O33	O	1.334770	-0.750570	-0.578152
O34	O	1.834770	-0.250570	-0.078152
C35	C	1.143442	-0.512660	-0.512800
C36	C	1.643442	-0.012660	-0.012800
C37	C	1.036228	-0.512679	-0.512815
C38	C	1.536228	-0.012679	-0.012815
C39	C	0.839933	-0.512683	-0.512843
C40	C	1.339933	-0.012683	-0.012843
C41	C	0.949166	-0.512678	-0.512824
C42	C	1.449166	-0.012678	-0.012824
C43	C	1.394012	-0.789215	-0.512806
C44	C	1.894012	-0.289215	-0.012806
C45	C	1.394081	-0.907520	-0.512833
C46	C	1.894081	-0.407520	-0.012833
C47	C	1.458582	-0.976763	-0.441806
C48	C	1.958582	-0.476763	0.058194
C49	C	1.482154	-1.047458	-0.538955
C50	C	1.982154	-0.547458	-0.038955
C51	C	1.370630	-1.047623	-0.415747
C52	C	1.870630	-0.547623	0.084253
C53	C	1.417698	-0.976658	-0.610033
C54	C	1.917698	-0.476658	-0.110033
C55	C	1.306133	-0.976817	-0.486759
C56	C	1.806133	-0.476817	0.013241
C57	C	1.329672	-1.047481	-0.583975
C58	C	1.829672	-0.547481	-0.083975
C59	C	1.645650	-0.512689	-0.512849
C60	C	2.145650	-0.012689	-0.012849
C61	C	1.752864	-0.512695	-0.512860
C62	C	2.252864	-0.012695	-0.012860
C63	C	1.394121	-0.512581	-0.790445
C64	C	1.894121	-0.012581	-0.290445
C65	C	1.394149	-0.512541	-0.908751
C66	C	1.894149	-0.012541	-0.408751
C67	C	1.394128	-0.235053	-0.512866
C68	C	1.894128	0.264947	-0.012866
C69	C	1.394158	-0.116748	-0.512884
C70	C	1.894158	0.383252	-0.012884
C71	C	1.329708	-0.583606	-0.977987
C72	C	1.829708	-0.083606	-0.477987
C73	C	1.417725	-0.609610	-1.048775
C74	C	1.917725	-0.109610	-0.548775
C75	C	1.306201	-0.486473	-1.048762
C76	C	1.806201	0.013527	-0.548762
C77	C	1.482212	-0.538596	-0.977981
C78	C	1.982212	-0.038596	-0.477981
C79	C	1.370628	-0.415414	-0.977961
C80	C	1.870628	0.084586	-0.477961
C81	C	1.458705	-0.441381	-1.048718
C82	C	1.958705	0.058619	-0.548718
C83	C	1.394048	-0.512690	-0.236283
C84	C	1.894048	-0.012690	0.263717
C85	C	1.394207	-0.512430	-0.117978
C86	C	1.894207	-0.012430	0.382022
H87	H	1.513137	-0.945710	-0.381795
H88	H	2.013137	-0.445710	0.118205
C89	C	1.444662	-0.934730	-0.721013
C90	C	1.944662	-0.434730	-0.221013
N91	N	1.464975	-0.903146	-0.804600
N92	N	1.964975	-0.403146	-0.304600
H93	H	1.350763	-1.078794	-0.333620
H94	H	1.850763	-0.578794	0.166380
C95	C	1.582752	-0.568457	-0.936158
C96	C	2.082752	-0.068457	-0.436158
N97	N	1.658476	-0.590952	-0.904654
N98	N	2.158476	-0.090952	-0.404654
H99	H	1.275159	-1.078336	-0.644131
H100	H	1.775159	-0.578336	-0.144131
H101	H	1.275256	-0.643797	-0.946931
H102	H	1.775256	-0.143797	-0.446931
C103	C	1.532442	-0.360127	-1.090412
C104	C	2.032442	0.139873	-0.590412
N105	N	1.587984	-0.298931	-1.121818
N106	N	2.087984	0.201069	-0.621818
H107	H	1.350676	-0.333346	-0.946833
H108	H	1.850676	0.166654	-0.446833
H109	H	1.437652	-0.691701	-1.079880
H110	H	1.937652	-0.191701	-0.579880
C111	C	1.205688	-0.456743	-1.090760
C112	C	1.705688	0.043257	-0.590760
N113	N	1.129979	-0.434358	-1.122388
N114	N	1.629979	0.065642	-0.622388
H115	H	1.556563	-1.078491	-0.561038
H116	H	2.056563	-0.578491	-0.061038
H117	H	1.231746	-0.945761	-0.464647
H118	H	1.731746	-0.445761	0.035353
