data_functionalizedCrystal
_audit_creation_method	'MofGen! by Chris Wilmer'
_symmetry_space_group_name_H-M	'P1'
_symmetry_Int_Tables_number	1
_symmetry_cell_setting	triclinic
loop_
_symmetry_equiv_pos_as_xyz
  x,y,z
_cell_length_a	11.026623
_cell_length_b	6.394989
_cell_length_c	10.065875
_cell_angle_alpha	80.951547
_cell_angle_beta	100.697799
_cell_angle_gamma	97.542207
loop_
_atom_site_label
_atom_site_type_symbol
_atom_site_fract_x
_atom_site_fract_y
_atom_site_fract_z
O1	O	-1.641000	-0.855583	-0.113477
O2	O	-1.286162	-0.755404	-0.113481
O3	O	-1.468618	-0.503323	-0.113480
O4	O	-1.458544	-1.107664	-0.113478
O5	O	-1.433830	-0.551638	0.113509
O6	O	-1.251374	-0.803719	0.113508
O7	O	-1.606212	-0.903898	0.113511
Zn8	Zn	-1.423270	-0.861480	0.149549
Zn9	Zn	-1.469104	-0.797822	-0.149518
O10	O	-1.423756	-1.155979	0.113511
C11	C	-1.223275	-0.761081	0.000013
C12	C	-1.087719	-0.705988	0.000011
C13	C	-1.016240	-0.858102	0.000011
C14	C	-0.876135	-0.801165	0.000009
C15	C	-0.669100	-0.898218	0.000015
C16	C	-0.804657	-0.953301	0.000009
C17	C	-1.449233	-0.448909	0.000009
C18	C	-1.443146	-0.210385	0.000008
N19	N	-1.391998	-0.904926	0.353654
N20	N	-1.500386	-0.754363	-0.353624
C21	C	-1.458216	-0.812922	0.421434
C22	C	-1.434158	-0.846380	0.578601
H23	H	-1.058766	-1.030486	0.000019
C24	C	-0.818694	-0.568267	0.000009
N25	N	-0.775427	-0.392851	0.000006
C26	C	-1.601050	-0.614488	0.567594
N27	N	-1.676872	-0.509144	0.508253
C28	C	-0.862096	-1.186200	0.000009
N29	N	-0.905360	-1.361617	0.000005
H30	H	-1.317490	-1.008454	0.411980
C31	C	-1.030272	-0.473101	0.000011
N32	N	-0.987006	-0.297685	0.000008
C33	C	-1.558847	-0.673001	0.342643
N34	N	-1.634639	-0.567597	0.283299
H35	H	-1.359645	-0.949915	0.636921
