data_functionalizedCrystal
_audit_creation_method	'MofGen! by Chris Wilmer'
_symmetry_space_group_name_H-M	'P1'
_symmetry_Int_Tables_number	1
_symmetry_cell_setting	triclinic
loop_
_symmetry_equiv_pos_as_xyz
  x,y,z
_cell_length_a	16.959454
_cell_length_b	12.827893
_cell_length_c	12.827885
_cell_angle_alpha	89.980728
_cell_angle_beta	89.970356
_cell_angle_gamma	90.020046
loop_
_atom_site_label
_atom_site_type_symbol
_atom_site_fract_x
_atom_site_fract_y
_atom_site_fract_z
Zn1	Zn	-0.314644	1.597636	-0.590850
Zn2	Zn	-0.446843	1.597515	-0.416110
Zn3	Zn	-0.314682	1.422877	-0.416123
Zn4	Zn	-0.446784	1.422848	-0.590810
O5	O	-0.380738	1.510219	-0.503473
O6	O	-0.332189	1.743856	-0.567681
O7	O	-0.429352	1.574311	-0.269876
O8	O	-0.204066	1.446122	-0.439323
O9	O	-0.429315	1.743767	-0.439301
O10	O	-0.204038	1.574516	-0.567694
O11	O	-0.332254	1.446005	-0.269885
O12	O	-0.332197	1.276637	-0.439285
O13	O	-0.429215	1.446072	-0.737052
O14	O	-0.429252	1.276616	-0.567627
O15	O	-0.332132	1.574488	-0.737081
O16	O	-0.557446	1.574283	-0.439263
O17	O	-0.557403	1.445956	-0.567614
C18	C	-0.380723	1.238709	-0.503454
C19	C	-0.380736	1.122556	-0.503470
C20	C	-0.428836	1.070788	-0.566880
C21	C	-0.428850	0.950738	-0.566898
C22	C	-0.586105	1.510131	-0.503456
C23	C	-0.673961	1.510190	-0.503483
C24	C	-1.045444	1.443496	-0.570299
C25	C	-1.045429	1.577233	-0.436755
C26	C	-0.962883	1.577197	-0.436745
C27	C	-0.921614	1.510308	-0.503512
C28	C	-0.962891	1.443455	-0.570289
C29	C	-0.921601	1.644041	-0.369962
C30	C	-0.839050	1.644006	-0.369949
C31	C	-0.797779	1.577121	-0.436722
C32	C	-0.839061	1.510267	-0.503502
C33	C	-0.797791	1.443378	-0.570270
C34	C	-0.839071	1.376528	-0.637056
C35	C	-0.921620	1.376571	-0.637062
C36	C	-0.715231	1.577079	-0.436716
C37	C	-0.715238	1.443337	-0.570260
C38	C	-0.174570	1.510335	-0.503514
C39	C	-0.086714	1.510385	-0.503532
C40	C	-0.380754	1.782789	-0.503494
C41	C	-0.380761	1.898942	-0.503503
C42	C	-0.380662	1.510290	-0.776044
C43	C	-0.380630	1.510320	-0.892197
C44	C	-0.332581	1.573871	-0.943996
C45	C	-0.332546	1.573904	-1.064046
C46	C	-0.380757	1.510208	-0.231964
C47	C	-0.380567	1.510380	-0.115811
H48	H	-0.681641	1.388871	-0.624634
H49	H	-0.805461	1.322061	-0.691414
F50	F	-0.434363	1.439228	-0.950395
F51	F	-0.482653	1.129021	-0.637819
H52	H	-0.421708	1.455973	-1.071272
F53	F	-0.278780	1.645028	-1.122267
F54	F	-0.671301	1.648210	-0.365632
F55	F	-0.482683	0.892552	-0.637853
F56	F	-0.965558	1.305430	-0.708134
H57	H	-0.339581	0.943455	-0.449209
H58	H	-1.079036	1.631685	-0.382389
F59	F	-1.089377	1.372357	-0.641379
H60	H	-0.291467	1.628252	-0.899466
H61	H	-0.339562	1.077999	-0.449200
F62	F	-0.965526	1.715227	-0.298913
F63	F	-0.795124	1.715159	-0.298876
