data_functionalizedCrystal
_audit_creation_method	'MofGen! by Chris Wilmer'
_symmetry_space_group_name_H-M	'P1'
_symmetry_Int_Tables_number	1
_symmetry_cell_setting	triclinic
loop_
_symmetry_equiv_pos_as_xyz
  x,y,z
_cell_length_a	16.992694
_cell_length_b	15.538191
_cell_length_c	15.455313
_cell_angle_alpha	91.603349
_cell_angle_beta	87.142206
_cell_angle_gamma	68.970158
loop_
_atom_site_label
_atom_site_type_symbol
_atom_site_fract_x
_atom_site_fract_y
_atom_site_fract_z
O1	O	0.989241	0.191780	-0.072014
O2	O	1.489241	0.691780	0.427986
O3	O	0.761568	0.189633	-0.072040
O4	O	1.261568	0.689633	0.427960
O5	O	0.919723	0.056913	-0.072026
O6	O	1.419723	0.556913	0.427974
O7	O	0.831085	0.324499	-0.072028
O8	O	1.331085	0.824499	0.427972
O9	O	0.910688	0.064469	0.072235
O10	O	1.410688	0.564469	0.572235
O11	O	0.752533	0.197189	0.072222
O12	O	1.252533	0.697189	0.572222
O13	O	0.980206	0.199336	0.072247
O14	O	1.480206	0.699336	0.572247
Cu15	Cu	0.865545	0.198952	0.085407
Cu16	Cu	1.365545	0.698952	0.585407
Cu17	Cu	0.876229	0.190016	-0.085199
Cu18	Cu	1.376229	0.690016	0.414801
O19	O	0.822051	0.332055	0.072233
O20	O	1.322051	0.832055	0.572233
C21	C	0.728624	0.190651	0.000088
C22	C	1.228624	0.690651	0.500088
C23	C	0.643924	0.182416	0.000078
C24	C	1.143924	0.682416	0.500078
C25	C	0.571070	0.261869	0.000078
C26	C	1.071070	0.761869	0.500078
C27	C	0.491487	0.254127	0.000090
C28	C	0.991487	0.754127	0.500090
C29	C	0.484758	0.166930	0.000095
C30	C	0.984758	0.666930	0.500095
C31	C	0.557620	0.087471	0.000098
C32	C	1.057620	0.587471	0.500098
C33	C	0.637201	0.095214	0.000092
C34	C	1.137201	0.595214	0.500092
C35	C	0.250294	0.134837	0.000119
C36	C	0.750294	0.634837	0.500119
C37	C	0.170704	0.127099	0.000122
C38	C	0.670704	0.627099	0.500122
C39	C	0.104576	0.293756	0.000116
C40	C	0.604576	0.793756	0.500116
C41	C	0.184162	0.301491	0.000105
C42	C	0.684162	0.801491	0.500105
C43	C	0.257016	0.222033	0.000112
C44	C	0.757016	0.722033	0.500112
N45	N	0.403412	0.159014	0.000105
N46	N	0.903412	0.659014	0.500105
N47	N	0.338360	0.229950	0.000108
N48	N	0.838360	0.729950	0.500108
C49	C	0.924480	0.026294	0.000103
C50	C	1.424480	0.526294	0.500103
C51	C	0.952104	-0.076201	0.000097
C52	C	1.452104	0.423799	0.500097
C53	C	0.677671	-0.384652	0.000085
C54	C	1.177671	0.115348	0.500085
C55	C	0.703646	-0.480962	0.000090
C56	C	1.203646	0.019038	0.500090
C57	C	0.849754	-0.492404	0.000106
C58	C	1.349754	0.007596	0.500106
C59	C	0.823791	-0.396094	0.000097
C60	C	1.323791	0.103906	0.500097
C61	C	0.737748	-0.342224	0.000087
C62	C	1.237748	0.157776	0.500087
C63	C	0.883868	-0.353667	0.000099
C64	C	1.383868	0.146333	0.500099
C65	C	0.857907	-0.257364	0.000095
C66	C	1.357907	0.242636	0.500095
C67	C	0.771868	-0.203488	0.000088
C68	C	1.271868	0.296512	0.500088
C69	C	0.711786	-0.245922	0.000083
C70	C	1.211786	0.254078	0.500083
C71	C	0.969911	-0.407537	0.000115
C72	C	1.469911	0.092463	0.500115
C73	C	1.029988	-0.365110	0.000117
C74	C	1.529988	0.134890	0.500117
C75	C	1.004027	-0.268806	0.000106
C76	C	1.504027	0.231194	0.500106
C77	C	0.917988	-0.214930	0.000099
C78	C	1.417988	0.285070	0.500099
C79	C	1.064108	-0.226373	0.000111
C80	C	1.564108	0.273627	0.500111
C81	C	1.038146	-0.130070	0.000107
C82	C	1.538146	0.369930	0.500107
C83	C	0.892026	-0.118628	0.000095
C84	C	1.392026	0.381372	0.500095
C85	C	1.013150	0.198318	0.000118
C86	C	1.513150	0.698318	0.500118
C87	C	1.097851	0.206553	0.000122
C88	C	1.597851	0.706553	0.500122
C89	C	0.817294	0.362675	0.000103
C90	C	1.317294	0.862675	0.500103
C91	C	0.789671	0.465169	0.000103
C92	C	1.289671	0.965169	0.500103
N93	N	0.858036	0.205237	0.205401
N94	N	1.358036	0.705237	0.705401
N95	N	0.883746	0.183724	-0.205194
N96	N	1.383746	0.683724	0.294806
C97	C	0.925237	0.148877	0.250801
C98	C	1.425237	0.648877	0.750801
C99	C	0.919563	0.153639	0.341609
C100	C	1.419563	0.653639	0.841609
C101	C	0.846689	0.214767	0.387015
C102	C	1.346689	0.714767	0.887015
C103	C	0.779482	0.271130	0.341608
C104	C	1.279482	0.771130	0.841608
C105	C	0.785154	0.266362	0.250803
C106	C	1.285154	0.766362	0.750803
C107	C	0.822212	0.235320	0.658594
C108	C	1.322212	0.735320	1.158594
C109	C	0.816545	0.240085	0.749406
C110	C	1.316545	0.740085	1.249406
C111	C	0.956626	0.122592	0.749400
C112	C	1.456626	0.622592	1.249400
C113	C	0.962294	0.117834	0.658593
C114	C	1.462294	0.617834	1.158593
C115	C	0.895085	0.174194	0.613194
C116	C	1.395085	0.674194	1.113194
N117	N	0.840889	0.219638	0.479834
N118	N	1.340889	0.719638	0.979834
N119	N	0.900884	0.169317	0.520376
N120	N	1.400884	0.669317	1.020376
H121	H	0.821962	-0.074764	0.000081
H122	H	1.321962	0.425236	0.500081
Br123	Br	0.005701	0.401587	0.000107
Br124	Br	0.505701	0.901587	0.500107
Br125	Br	1.024145	0.065920	0.189189
Br126	Br	1.524145	0.565920	0.689189
H127	H	1.087068	-0.095525	0.000110
H128	H	1.587068	0.404475	0.500110
Br129	Br	0.736629	-0.072789	0.000093
Br130	Br	1.236629	0.427211	0.500093
H131	H	0.767488	0.281212	0.621638
H132	H	1.267488	0.781212	1.121638
H133	H	1.134164	-0.270247	0.000128
H134	H	1.634164	0.229753	0.500128
H135	H	0.757200	0.289866	0.786371
H136	H	1.257200	0.789866	1.286371
H137	H	0.730432	0.312256	0.213839
H138	H	1.230432	0.812256	0.713839
Br139	Br	0.193287	0.419834	0.000087
Br140	Br	0.693287	0.919834	0.500087
Br141	Br	0.680576	0.354084	0.403227
Br142	Br	1.180576	0.854084	0.903227
H143	H	0.165234	0.056090	0.000126
H144	H	0.665234	0.556090	0.500126
H145	H	0.974283	0.107745	0.378573
H146	H	1.474283	0.607745	0.878573
H147	H	0.309604	0.070135	0.000125
H148	H	0.809604	0.570135	0.500125
H149	H	0.607606	-0.340788	0.000071
H150	H	1.107606	0.159212	0.500071
Br151	Br	0.392615	0.361962	0.000087
Br152	Br	0.892615	0.861962	0.500087
Br153	Br	0.580191	0.380213	0.000061
Br154	Br	1.080191	0.880213	0.500061
Br155	Br	0.548490	-0.030869	0.000114
Br156	Br	1.048490	0.469131	0.500114
H157	H	0.696521	0.030515	0.000091
H158	H	1.196521	0.530515	0.500091
Br159	Br	0.595013	-0.172805	0.000057
Br160	Br	1.095013	0.327195	0.500057
H161	H	0.654716	-0.515501	0.000100
H162	H	1.154716	-0.015501	0.500100
H163	H	0.919810	-0.536277	0.000117
H164	H	1.419810	-0.036277	0.500117
Br165	Br	1.146756	-0.438225	0.000140
Br166	Br	1.646756	0.061775	0.500140
H167	H	0.991046	-0.485953	0.000111
H168	H	1.491046	0.014047	0.500111
H169	H	1.021633	0.068059	0.621625
H170	H	1.521633	0.568059	1.121625
Br171	Br	1.047833	0.046107	0.811015
Br172	Br	1.547833	0.546107	1.311015
