data_functionalizedCrystal
_audit_creation_method	'MofGen! by Chris Wilmer'
_symmetry_space_group_name_H-M	'P1'
_symmetry_Int_Tables_number	1
_symmetry_cell_setting	triclinic
loop_
_symmetry_equiv_pos_as_xyz
  x,y,z
_cell_length_a	27.732048
_cell_length_b	27.732064
_cell_length_c	12.376457
_cell_angle_alpha	101.185913
_cell_angle_beta	78.807411
_cell_angle_gamma	82.646039
loop_
_atom_site_label
_atom_site_type_symbol
_atom_site_fract_x
_atom_site_fract_y
_atom_site_fract_z
O1	O	0.650254	0.048197	-0.093849
O2	O	0.983587	0.381531	0.239484
O3	O	1.316921	0.714864	0.572817
O4	O	0.509464	0.056940	-0.093882
O5	O	0.842798	0.390273	0.239451
O6	O	1.176131	0.723606	0.572784
O7	O	0.584228	-0.017828	-0.093869
O8	O	0.917561	0.315505	0.239464
O9	O	1.250895	0.648839	0.572797
O10	O	0.575490	0.122965	-0.093862
O11	O	0.908824	0.456298	0.239471
O12	O	1.242157	0.789632	0.572804
O13	O	0.565544	0.000839	0.094140
O14	O	0.898877	0.334172	0.427473
O15	O	1.232211	0.667505	0.760806
O16	O	0.490780	0.075606	0.094127
O17	O	0.824114	0.408940	0.427460
O18	O	1.157447	0.742273	0.760793
O19	O	0.631570	0.066864	0.094159
O20	O	0.964903	0.400197	0.427493
O21	O	1.298237	0.733531	0.760826
Zn22	Zn	0.558209	0.074199	0.123994
Zn23	Zn	0.891542	0.407532	0.457327
Zn24	Zn	1.224875	0.740866	0.790660
Zn25	Zn	0.582826	0.049605	-0.123716
Zn26	Zn	0.916159	0.382938	0.209617
Zn27	Zn	1.249492	0.716272	0.542950
O28	O	0.556806	0.141632	0.094146
O29	O	0.890139	0.474965	0.427480
O30	O	1.223473	0.808298	0.760813
C31	C	0.574702	-0.026502	0.000132
C32	C	0.908035	0.306832	0.333465
C33	C	1.241368	0.640165	0.666798
C34	C	0.574147	-0.080157	0.000121
C35	C	0.907480	0.253176	0.333454
C36	C	1.240813	0.586509	0.666788
C37	C	0.482116	0.066089	0.000118
C38	C	0.815449	0.399422	0.333451
C39	C	1.148782	0.732756	0.666785
C40	C	0.428462	0.065535	0.000105
C41	C	0.761795	0.398868	0.333438
C42	C	1.095129	0.732202	0.666772
C43	C	0.526181	-0.457232	0.000105
C44	C	0.859515	-0.123898	0.333439
C45	C	1.192848	0.209435	0.666772
C46	C	0.528228	-0.255571	0.000104
C47	C	0.861561	0.077762	0.333438
C48	C	1.194894	0.411095	0.666771
O49	O	0.491012	-0.224324	0.000051
O50	O	0.824345	0.109009	0.333384
O51	O	1.157678	0.442343	0.666717
N52	N	0.572561	-0.236443	0.000115
N53	N	0.905894	0.096890	0.333448
N54	N	1.239227	0.430224	0.666781
C55	C	0.616386	-0.267734	0.000118
C56	C	0.949720	0.065600	0.333451
C57	C	1.283053	0.398933	0.666784
O58	O	0.654143	-0.246838	0.000115
O59	O	0.987476	0.086496	0.333448
O60	O	1.320809	0.419829	0.666781
C61	C	0.614340	-0.469394	0.000110
C62	C	0.947674	-0.136060	0.333444
C63	C	1.281007	0.197273	0.666777
C64	C	0.570003	-0.488518	0.000112
C65	C	0.903336	-0.155185	0.333445
C66	C	1.236670	0.178149	0.666778
C67	C	0.481848	-0.476357	0.000105
C68	C	0.815181	-0.143023	0.333439
C69	C	1.148514	0.190310	0.666772
C70	C	0.481336	-0.526768	0.000112
C71	C	0.814669	-0.193435	0.333445
C72	C	1.148003	0.139899	0.666778
C73	C	0.525158	-0.558055	0.000118
C74	C	0.858491	-0.224721	0.333452
C75	C	1.191824	0.108612	0.666785
C76	C	0.569491	-0.538930	0.000118
C77	C	0.902825	-0.205596	0.333452
C78	C	1.236158	0.127737	0.666785
C79	C	0.658166	-0.500684	0.000105
C80	C	0.991499	-0.167351	0.333439
C81	C	1.324833	0.165982	0.666772
C82	C	0.657651	-0.551102	0.000101
C83	C	0.990984	-0.217769	0.333434
C84	C	1.324318	0.115564	0.666767
C85	C	0.613314	-0.570227	0.000102
C86	C	0.946647	-0.236893	0.333435
C87	C	1.279980	0.096440	0.666769
C88	C	0.612801	-0.620627	0.000131
C89	C	0.946135	-0.287294	0.333464
C90	C	1.279468	0.046039	0.666798
N91	N	0.568468	-0.639756	0.000121
N92	N	0.901801	-0.306423	0.333454
N93	N	1.235135	0.026911	0.666787
C94	C	0.524646	-0.608469	0.000114
C95	C	0.857980	-0.275136	0.333448
C96	C	1.191313	0.058197	0.666781
C97	C	0.617457	-0.161859	0.000124
C98	C	0.950791	0.171475	0.333457
C99	C	1.284124	0.504808	0.666790
C100	C	0.617969	-0.111444	0.000127
C101	C	0.951302	0.221890	0.333461
C102	C	1.284635	0.555223	0.666794
C103	C	0.529810	-0.099285	0.000112
C104	C	0.863143	0.234048	0.333445
C105	C	1.196476	0.567382	0.666779
C106	C	0.529298	-0.149700	0.000116
C107	C	0.862631	0.183633	0.333450
C108	C	1.195965	0.516966	0.666783
C109	C	0.573124	-0.180987	0.000113
C110	C	0.906457	0.152346	0.333447
C111	C	1.239791	0.485680	0.666780
C112	C	0.523575	-0.714338	0.000129
C113	C	0.856908	-0.381004	0.333462
C114	C	1.190242	-0.047671	0.666796
C115	C	0.523067	-0.764754	0.000140
C116	C	0.856400	-0.431420	0.333473
C117	C	1.189733	-0.098087	0.666807
C118	C	0.611226	-0.776908	0.000149
C119	C	0.944559	-0.443575	0.333483
C120	C	1.277892	-0.110242	0.666816
C121	C	0.611734	-0.726496	0.000144
C122	C	0.945067	-0.393163	0.333477
C123	C	1.278400	-0.059830	0.666811
C124	C	0.567905	-0.695212	0.000130
C125	C	0.901238	-0.361879	0.333463
C126	C	1.234571	-0.028545	0.666797
O127	O	0.649998	-0.651904	0.000172
O128	O	0.983332	-0.318571	0.333505
O129	O	1.316665	0.014762	0.666839
O130	O	0.486898	-0.629377	0.000092
O131	O	0.820231	-0.296044	0.333426
O132	O	1.153565	0.037289	0.666759
C133	C	0.526693	-0.406820	0.000099
C134	C	0.860026	-0.073487	0.333432
C135	C	1.193360	0.259847	0.666766
C136	C	0.571026	-0.387695	0.000099
C137	C	0.904360	-0.054362	0.333432
C138	C	1.237693	0.278972	0.666766
C139	C	0.614848	-0.418982	0.000105
C140	C	0.948182	-0.085648	0.333439
C141	C	1.281515	0.247685	0.666772
C142	C	0.571538	-0.337280	0.000103
C143	C	0.904871	-0.003947	0.333436
C144	C	1.238205	0.329387	0.666769
C145	C	0.527716	-0.305994	0.000096
C146	C	0.861049	0.027340	0.333430
C147	C	1.194383	0.360673	0.666763
C148	C	0.483383	-0.325122	0.000086
C149	C	0.816716	0.008211	0.333420
C150	C	1.150049	0.341545	0.666753
C151	C	0.482871	-0.375534	0.000093
C152	C	0.816204	-0.042200	0.333426
C153	C	1.149538	0.291133	0.666759
C154	C	0.659182	-0.399853	0.000116
C155	C	0.992515	-0.066520	0.333449
C156	C	1.325848	0.266814	0.666782
C157	C	0.659690	-0.349441	0.000110
C158	C	0.993023	-0.016108	0.333444
C159	C	1.326356	0.317226	0.666777
C160	C	0.615868	-0.318154	0.000104
C161	C	0.949201	0.015179	0.333437
C162	C	1.282534	0.348512	0.666771
C163	C	0.089644	0.106243	0.000156
C164	C	0.422978	0.439577	0.333489
C165	C	0.756311	0.772910	0.666823
C166	C	-0.112016	0.104193	0.000166
C167	C	0.221317	0.437527	0.333499
C168	C	0.554650	0.770860	0.666833
O169	O	-0.143275	0.141419	0.000217
O170	O	0.190059	0.474752	0.333550
O171	O	0.523392	0.808085	0.666883
N172	N	-0.131142	0.059858	0.000162
N173	N	0.202191	0.393191	0.333495
N174	N	0.535524	0.726525	0.666828
C175	C	-0.099850	0.016033	0.000163
C176	C	0.233483	0.349366	0.333496
C177	C	0.566816	0.682700	0.666829
O178	O	-0.120746	-0.021723	0.000171
O179	O	0.212587	0.311611	0.333504
O180	O	0.545920	0.644944	0.666838
C181	C	0.101809	0.018084	0.000161
C182	C	0.435142	0.351418	0.333494
C183	C	0.768475	0.684751	0.666827
C184	C	0.120933	0.062421	0.000153
C185	C	0.454266	0.395755	0.333487
C186	C	0.787599	0.729088	0.666820
C187	C	0.108769	0.150577	0.000150
C188	C	0.442102	0.483910	0.333483
C189	C	0.775436	0.817244	0.666816
C190	C	0.159182	0.151088	0.000141
C191	C	0.492515	0.484422	0.333475
C192	C	0.825848	0.817755	0.666808
C193	C	0.190470	0.107266	0.000139
C194	C	0.523803	0.440600	0.333472
C195	C	0.857137	0.773933	0.666805
C196	C	0.171346	0.062933	0.000145
C197	C	0.504679	0.396266	0.333478
C198	C	0.838012	0.729599	0.666811
C199	C	0.133099	-0.025740	0.000169
C200	C	0.466432	0.307594	0.333503
C201	C	0.799765	0.640927	0.666836
C202	C	0.183516	-0.025222	0.000172
C203	C	0.516849	0.308111	0.333505
C204	C	0.850183	0.641444	0.666839
C205	C	0.202640	0.019114	0.000165
C206	C	0.535973	0.352448	0.333498
C207	C	0.869307	0.685781	0.666831
C208	C	0.253047	0.019622	0.000133
C209	C	0.586380	0.352955	0.333467
C210	C	0.919713	0.686289	0.666800
N211	N	0.272173	0.063957	0.000137
N212	N	0.605506	0.397291	0.333471
N213	N	0.938839	0.730624	0.666804
C214	C	0.240884	0.107779	0.000140
C215	C	0.574218	0.441113	0.333473
C216	C	0.907551	0.774446	0.666807
C217	C	-0.205724	0.014959	0.000161
C218	C	0.127609	0.348292	0.333495
C219	C	0.460942	0.681626	0.666828
C220	C	-0.256139	0.014446	0.000160
C221	C	0.077195	0.347779	0.333493
C222	C	0.410528	0.681112	0.666826
C223	C	-0.268301	0.102607	0.000165
C224	C	0.065032	0.435940	0.333499
C225	C	0.398365	0.769273	0.666832
C226	C	-0.217885	0.103118	0.000159
C227	C	0.115448	0.436452	0.333492
C228	C	0.448781	0.769785	0.666825
C229	C	-0.186598	0.059294	0.000165
C230	C	0.146735	0.392627	0.333499
C231	C	0.480068	0.725961	0.666832
C232	C	0.346756	0.108850	0.000121
C233	C	0.680089	0.442183	0.333454
C234	C	1.013422	0.775517	0.666788
C235	C	0.397174	0.109357	0.000108
C236	C	0.730507	0.442690	0.333441
C237	C	1.063841	0.776024	0.666774
C238	C	0.409332	0.021197	0.000108
C239	C	0.742665	0.354530	0.333441
C240	C	1.075998	0.687864	0.666775
C241	C	0.358918	0.020689	0.000115
C242	C	0.692252	0.354022	0.333449
C243	C	1.025585	0.687356	0.666782
C244	C	0.327631	0.064520	0.000126
C245	C	0.660964	0.397853	0.333459
C246	C	0.994297	0.731187	0.666792
O247	O	0.284332	-0.017582	0.000095
O248	O	0.617666	0.315751	0.333429
O249	O	0.950999	0.649084	0.666762
O250	O	0.261788	0.145532	0.000157
O251	O	0.595121	0.478865	0.333490
O252	O	0.928454	0.812199	0.666823
C253	C	0.039232	0.105732	0.000165
C254	C	0.372565	0.439065	0.333498
C255	C	0.705898	0.772399	0.666831
C256	C	0.020107	0.061398	0.000171
C257	C	0.353440	0.394732	0.333504
C258	C	0.686774	0.728065	0.666837
C259	C	0.051395	0.017576	0.000168
C260	C	0.384729	0.350910	0.333501
C261	C	0.718062	0.684243	0.666835
C262	C	-0.030307	0.060885	0.000169
C263	C	0.303026	0.394219	0.333502
C264	C	0.636359	0.727552	0.666836
C265	C	-0.061596	0.104707	0.000172
C266	C	0.271738	0.438041	0.333505
C267	C	0.605071	0.771374	0.666838
C268	C	-0.042470	0.149043	0.000176
C269	C	0.290864	0.482376	0.333509
C270	C	0.624197	0.815709	0.666842
C271	C	0.007943	0.149554	0.000167
C272	C	0.341277	0.482887	0.333500
C273	C	0.674610	0.816221	0.666834
C274	C	0.032269	-0.026759	0.000164
C275	C	0.365603	0.306574	0.333497
C276	C	0.698936	0.639908	0.666831
C277	C	-0.018144	-0.027267	0.000171
C278	C	0.315189	0.306066	0.333505
C279	C	0.648523	0.639400	0.666838
C280	C	-0.049432	0.016555	0.000174
C281	C	0.283901	0.349889	0.333507
C282	C	0.617235	0.683222	0.666841
C283	C	0.658919	0.057715	0.000157
C284	C	0.992252	0.391048	0.333490
C285	C	1.325585	0.724381	0.666823
C286	C	0.712573	0.058268	0.000162
C287	C	1.045906	0.391601	0.333496
C288	C	1.379240	0.724935	0.666829
C289	C	0.566333	0.150305	0.000143
C290	C	0.899666	0.483639	0.333476
C291	C	1.232999	0.816972	0.666810
C292	C	0.566888	0.203960	0.000146
C293	C	0.900222	0.537293	0.333480
C294	C	1.233555	0.870627	0.666813
N295	N	0.541411	0.090983	0.293049
N296	N	0.874745	0.424317	0.626382
N297	N	1.208078	0.757650	0.959716
N298	N	0.599627	0.032817	-0.292772
N299	N	0.932960	0.366150	0.040562
N300	N	1.266293	0.699483	0.373895
C301	C	0.638618	-0.006155	0.648051
C302	C	0.971951	0.327178	0.981384
C303	C	1.305285	0.660512	1.314717
C304	C	0.650371	-0.017903	0.529713
C305	C	0.983705	0.315431	0.863046
C306	C	1.317038	0.648764	1.196380
C307	C	0.623132	0.009318	0.470541
C308	C	0.956466	0.342651	0.803874
C309	C	1.289799	0.675984	1.137208
C310	C	0.584138	0.048288	0.529719
C311	C	0.917471	0.381621	0.863052
C312	C	1.250805	0.714955	1.196385
C313	C	0.572386	0.060039	0.648068
C314	C	0.905719	0.393372	0.981401
C315	C	1.239052	0.726706	1.314735
C316	C	0.556900	0.075512	0.470558
C317	C	0.890233	0.408845	0.803892
C318	C	1.223567	0.742179	1.137225
C319	C	0.517906	0.114482	0.529736
C320	C	0.851239	0.447815	0.863069
C321	C	1.184572	0.781149	1.196403
C322	C	0.506155	0.126231	0.648074
C323	C	0.839489	0.459564	0.981407
C324	C	1.172822	0.792898	1.314741
C325	C	0.533394	0.099011	0.707246
C326	C	0.866728	0.432344	1.040579
C327	C	1.200061	0.765677	1.373912
C328	C	0.568652	0.063761	0.352209
C329	C	0.901986	0.397094	0.685542
C330	C	1.235319	0.730427	1.018876
C331	C	0.502420	0.129955	0.352226
C332	C	0.835753	0.463288	0.685560
C333	C	1.169087	0.796622	1.018893
C334	C	0.490667	0.141702	0.470564
C335	C	0.824000	0.475036	0.803898
C336	C	1.157333	0.808369	1.137231
H337	H	0.486960	-0.780321	0.000146
H338	H	0.820293	-0.446988	0.333480
H339	H	1.153626	-0.113654	0.666813
Br340	Br	0.451803	-0.038273	0.000107
Br341	Br	0.785137	0.295061	0.333440
Br342	Br	1.118470	0.628394	0.666774
Br343	Br	0.719867	-0.323493	0.000110
Br344	Br	1.053201	0.009840	0.333443
Br345	Br	1.386534	0.343173	0.666777
Br346	Br	0.225974	-0.084701	0.000187
Br347	Br	0.559307	0.248632	0.333520
Br348	Br	0.892640	0.581965	0.666854
H349	H	0.632704	-0.000249	0.374185
H350	H	0.966037	0.333085	0.707518
H351	H	1.299371	0.666418	1.040852
H352	H	0.174748	0.187192	0.000135
H353	H	0.508081	0.520525	0.333468
H354	H	0.841414	0.853859	0.666801
Br355	Br	0.671901	-0.700536	0.000191
Br356	Br	1.005235	-0.367202	0.333524
Br357	Br	1.338568	-0.033869	0.666857
Br358	Br	0.703291	-0.070786	0.449402
Br359	Br	1.036624	0.262547	0.782735
Br360	Br	1.369957	0.595881	1.116068
H361	H	0.480240	0.152121	0.304050
H362	H	0.813574	0.485454	0.637383
H363	H	1.146907	0.818788	0.970716
H364	H	0.660795	-0.028312	0.696236
H365	H	0.994128	0.305021	1.029570
H366	H	1.327462	0.638355	1.362903
H367	H	0.694868	-0.425322	0.000120
H368	H	1.028201	-0.091989	0.333453
H369	H	1.361534	0.241344	0.666786
H370	H	0.412742	0.145463	0.000101
H371	H	0.746075	0.478796	0.333434
H372	H	1.079408	0.812130	0.666768
H373	H	0.523824	0.108574	0.803606
H374	H	0.857157	0.441907	1.136940
H375	H	1.190490	0.775241	1.470273
Br376	Br	0.074725	-0.086238	0.000164
Br377	Br	0.408058	0.247096	0.333498
Br378	Br	0.741391	0.580429	0.666831
H379	H	-0.033708	-0.063375	0.000168
H380	H	0.299625	0.269958	0.333502
H381	H	0.632958	0.603292	0.666835
H382	H	0.694270	-0.485123	0.000104
H383	H	1.027604	-0.151789	0.333437
H384	H	1.360937	0.181544	0.666770
H385	H	-0.271703	-0.021660	0.000148
H386	H	0.061630	0.311674	0.333481
H387	H	0.394964	0.645007	0.666815
Br388	Br	0.453242	0.179125	0.728390
Br389	Br	0.786575	0.512459	1.061723
Br390	Br	1.119908	0.845792	1.395056
Br391	Br	0.437746	0.194588	0.550888
Br392	Br	0.771079	0.527922	0.884221
Br393	Br	1.104413	0.861255	1.217554
H394	H	0.646904	-0.802390	0.000160
H395	H	0.980237	-0.469057	0.333493
H396	H	1.313570	-0.135724	0.666827
H397	H	0.487885	-0.688871	0.000117
H398	H	0.821218	-0.355538	0.333450
H399	H	1.154552	-0.022205	0.666784
Br400	Br	0.421162	-0.552715	0.000102
Br401	Br	0.754495	-0.219382	0.333435
Br402	Br	1.087829	0.113951	0.666768
H403	H	0.446767	-0.391099	0.000095
H404	H	0.780100	-0.057766	0.333428
H405	H	1.113434	0.275567	0.666761
Br406	Br	-0.191937	0.163292	0.000149
Br407	Br	0.141397	0.496625	0.333483
Br408	Br	0.474730	0.829959	0.666816
H409	H	0.447701	-0.299639	0.000088
H410	H	0.781034	0.033694	0.333421
H411	H	1.114367	0.367028	0.666755
H412	H	0.446161	-0.450888	0.000096
H413	H	0.779494	-0.117555	0.333430
H414	H	1.112828	0.215779	0.666763
H415	H	0.493194	-0.165267	0.000122
H416	H	0.826528	0.168066	0.333455
H417	H	1.159861	0.501400	0.666789
H418	H	0.023509	0.185658	0.000163
H419	H	0.356842	0.518991	0.333496
H420	H	0.690176	0.852325	0.666829
H421	H	0.654071	-0.095876	0.000144
H422	H	0.987404	0.237458	0.333477
H423	H	1.320737	0.570791	0.666811
Br424	Br	0.676941	-0.204313	0.000125
Br425	Br	1.010274	0.129021	0.333458
Br426	Br	1.343607	0.462354	0.666792
H427	H	0.600402	0.032031	0.304037
H428	H	0.933735	0.365365	0.637371
H429	H	1.267069	0.698698	0.970704
Br430	Br	0.717133	-0.593561	0.000089
Br431	Br	1.050467	-0.260228	0.333422
Br432	Br	1.383800	0.073105	0.666755
Br433	Br	0.304301	0.168335	0.000137
Br434	Br	0.637635	0.501668	0.333470
Br435	Br	0.970968	0.835002	0.666803
Br436	Br	0.066315	0.210058	0.000153
Br437	Br	0.399648	0.543391	0.333487
Br438	Br	0.732981	0.876725	0.666820
Br439	Br	-0.163270	-0.044523	0.000171
Br440	Br	0.170063	0.288810	0.333504
Br441	Br	0.503397	0.622144	0.666837
Br442	Br	-0.310774	0.162079	0.000170
Br443	Br	0.022560	0.495413	0.333504
Br444	Br	0.355893	0.828746	0.666837
Br445	Br	0.332963	-0.039482	0.000129
Br446	Br	0.666296	0.293851	0.333462
Br447	Br	0.999629	0.627184	0.666796
H448	H	0.494128	-0.073802	0.000112
H449	H	0.827461	0.259531	0.333445
H450	H	1.160795	0.592864	0.666779
Br451	Br	-0.084941	0.208514	0.000171
Br452	Br	0.248392	0.541847	0.333504
Br453	Br	0.581725	0.875181	0.666837
H454	H	0.117537	-0.061843	0.000176
H455	H	0.450871	0.271490	0.333510
H456	H	0.784204	0.604823	0.666843
