data_functionalizedCrystal
_audit_creation_method	'MofGen! by Chris Wilmer'
_symmetry_space_group_name_H-M	'P1'
_symmetry_Int_Tables_number	1
_symmetry_cell_setting	triclinic
loop_
_symmetry_equiv_pos_as_xyz
  x,y,z
_cell_length_a	11.792254
_cell_length_b	10.489741
_cell_length_c	9.565339
_cell_angle_alpha	90.001269
_cell_angle_beta	90.005025
_cell_angle_gamma	95.631114
loop_
_atom_site_label
_atom_site_type_symbol
_atom_site_fract_x
_atom_site_fract_y
_atom_site_fract_z
O1	O	-1.507372	0.174898	-0.116299
O2	O	-1.177081	0.192899	-0.116293
O3	O	-1.349742	-0.001724	-0.116287
O4	O	-1.334711	0.369522	-0.116304
O5	O	-1.349727	-0.001709	0.116233
O6	O	-1.177067	0.192914	0.116227
O7	O	-1.507357	0.174913	0.116222
Zn8	Zn	-1.342210	0.183916	0.153142
Zn9	Zn	-1.342229	0.183896	-0.153213
O10	O	-1.334696	0.369537	0.116216
C11	C	-1.134780	0.191773	-0.000032
C12	C	-1.008758	0.188379	-0.000029
C13	C	-1.348600	-0.049245	-0.000028
C14	C	-1.345203	-0.190863	-0.000031
C15	C	-0.906414	0.185621	-0.000032
C16	C	-0.778018	0.182173	-0.000030
C17	C	-1.235344	-0.258634	-0.000039
C18	C	-1.287233	-0.350923	0.114605
C19	C	-1.287274	-0.350913	-0.114642
C20	C	-1.397137	-0.281287	0.114708
C21	C	-1.397163	-0.281267	-0.114642
C22	C	-1.449132	-0.373529	0.000029
C23	C	-0.549658	0.176040	-0.000036
C24	C	-0.675680	0.179434	-0.000027
C25	C	-1.335839	0.417057	-0.000046
C26	C	-1.339235	0.558675	-0.000053
N27	N	-1.342205	0.183929	0.362221
N28	N	-1.342243	0.183874	-0.362293
C29	C	-1.263019	0.274633	0.546592
C30	C	-1.239123	0.159570	0.453371
C31	C	-1.366050	0.298983	0.453373
C32	C	-1.318295	0.068752	0.546539
C33	C	-1.445268	0.208240	0.546548
C34	C	-1.421414	0.093094	0.453370
H35	H	-1.145019	-0.208680	0.000078
Cl36	Cl	-1.588710	-0.450311	0.000119
Cl37	Cl	-1.215460	-0.398554	0.264249
H38	H	-1.532382	0.228873	0.587511
Cl39	Cl	-1.468836	-0.233924	0.264516
H40	H	-1.386218	0.396310	0.412475
H41	H	-1.240782	-0.381727	-0.211573
Cl42	Cl	-1.159541	0.392962	0.609793
Cl43	Cl	-1.104585	0.127772	0.390172
Cl44	Cl	-1.468880	-0.233581	-0.264295
H45	H	-1.298041	-0.028593	0.587292
Cl46	Cl	-1.524833	-0.025493	0.390569
