data_functionalizedCrystal
_audit_creation_method	'MofGen! by Chris Wilmer'
_symmetry_space_group_name_H-M	'P1'
_symmetry_Int_Tables_number	1
_symmetry_cell_setting	triclinic
loop_
_symmetry_equiv_pos_as_xyz
  x,y,z
_cell_length_a	25.639242
_cell_length_b	25.639240
_cell_length_c	12.759387
_cell_angle_alpha	89.956653
_cell_angle_beta	89.971615
_cell_angle_gamma	90.028283
loop_
_atom_site_label
_atom_site_type_symbol
_atom_site_fract_x
_atom_site_fract_y
_atom_site_fract_z
Zn1	Zn	0.799279	-0.208187	-0.594224
Zn2	Zn	0.799202	-0.295632	-0.418505
Zn3	Zn	0.711846	-0.208206	-0.418527
Zn4	Zn	0.711809	-0.295586	-0.594110
O5	O	0.755534	-0.251903	-0.506342
O6	O	0.872434	-0.219798	-0.570953
O7	O	0.787597	-0.284062	-0.271487
O8	O	0.723491	-0.135038	-0.441890
O9	O	0.872377	-0.284044	-0.441854
O10	O	0.787728	-0.135024	-0.570974
O11	O	0.723417	-0.219830	-0.271503
O12	O	0.638676	-0.219786	-0.441780
O13	O	0.723429	-0.283965	-0.741147
O14	O	0.638649	-0.283984	-0.570780
O15	O	0.787693	-0.219753	-0.741230
O16	O	0.787562	-0.368791	-0.441743
O17	O	0.723355	-0.368758	-0.570759
C18	C	0.619691	-0.251882	-0.506270
C19	C	0.561577	-0.251886	-0.506265
C20	C	0.755460	-0.387745	-0.506259
C21	C	0.755476	-0.445859	-0.506259
C22	C	0.201209	-0.285387	-0.573448
C23	C	0.146605	-0.285390	-0.573465
O24	O	0.118364	-0.313848	-0.630527
N25	N	0.119295	-0.251917	-0.506410
C26	C	0.146592	-0.218435	-0.439342
O27	O	0.118348	-0.189964	-0.382309
C28	C	0.201195	-0.218430	-0.439331
C29	C	0.228502	-0.251909	-0.506383
C30	C	0.228516	-0.318862	-0.640496
C31	C	0.283117	-0.318859	-0.640477
C32	C	0.310410	-0.285381	-0.573412
C33	C	0.283103	-0.251906	-0.506365
C34	C	0.228491	-0.184946	-0.372269
C35	C	0.283098	-0.184943	-0.372265
C36	C	0.310405	-0.218422	-0.439317
C37	C	0.364997	-0.218425	-0.439281
N38	N	0.392307	-0.251898	-0.506336
C39	C	0.365014	-0.285376	-0.573402
C40	C	0.031921	-0.218449	-0.439370
C41	C	-0.022681	-0.218456	-0.439375
C42	C	-0.022664	-0.285410	-0.573500
C43	C	0.031939	-0.285405	-0.573489
C44	C	0.059231	-0.251921	-0.506425
C45	C	0.479679	-0.285368	-0.573358
C46	C	0.534284	-0.285364	-0.573330
C47	C	0.534262	-0.218409	-0.439210
C48	C	0.479662	-0.218414	-0.439233
C49	C	0.452371	-0.251896	-0.506315
O50	O	0.393272	-0.189980	-0.382252
O51	O	0.393263	-0.313837	-0.630435
C52	C	0.788999	-0.806177	-0.573677
C53	C	0.789014	-0.860781	-0.573698
O54	O	0.817428	-0.888979	-0.630935
N55	N	0.755606	-0.888142	-0.506443
C56	C	0.722177	-0.860896	-0.439170
O57	O	0.693763	-0.889182	-0.381967
C58	C	0.722160	-0.806292	-0.439155
C59	C	0.755573	-0.778934	-0.506407
C60	C	0.822409	-0.778819	-0.640924
C61	C	0.822394	-0.724218	-0.640901
C62	C	0.788969	-0.696976	-0.573631
C63	C	0.755558	-0.724334	-0.506384
C64	C	0.688729	-0.779047	-0.371887
C65	C	0.688713	-0.724440	-0.371878
C66	C	0.722127	-0.697082	-0.439130
C67	C	0.722118	-0.642491	-0.439090
N68	N	0.755526	-0.615130	-0.506345
C69	C	0.788951	-0.642372	-0.573616
C70	C	0.722216	-0.975566	-0.439208
C71	C	0.722236	-1.030168	-0.439218
C72	C	0.789072	-1.030050	-0.573748
C73	C	0.789055	-0.975447	-0.573732
C74	C	0.755624	-0.948205	-0.506464
C75	C	0.788918	-0.527707	-0.573562
C76	C	0.788901	-0.473102	-0.573530
C77	C	0.722064	-0.473225	-0.439004
C78	C	0.722082	-0.527826	-0.439032
C79	C	0.755510	-0.555065	-0.506319
O80	O	0.693717	-0.614258	-0.381886
O81	O	0.817356	-0.614079	-0.630819
C82	C	0.891907	-0.251924	-0.506414
C83	C	0.950021	-0.251933	-0.506445
C84	C	0.755565	-0.251852	-0.780375
C85	C	0.755579	-0.251831	-0.897152
C86	C	0.755622	-0.115530	-0.506447
C87	C	0.755660	-0.057416	-0.506492
C88	C	0.822447	-0.318679	-1.116561
C89	C	0.855852	-0.352132	-1.061681
C90	C	0.855835	-0.352152	-0.951960
C91	C	0.822407	-0.318716	-0.897115
C92	C	0.789002	-0.285263	-0.951994
C93	C	0.789024	-0.285246	-1.061719
C94	C	0.722174	-0.218378	-0.952032
C95	C	0.722193	-0.218354	-1.061753
C96	C	0.688746	-0.184942	-0.897187
C97	C	0.655342	-0.151486	-0.952066
C98	C	0.655361	-0.151467	-1.061795
C99	C	0.688787	-0.184902	-1.116633
C100	C	0.755532	-0.251916	-0.233374
C101	C	0.755620	-0.251790	-0.116598
H102	H	0.556515	-0.312628	-0.627933
H103	H	0.457427	-0.191154	-0.384632
H104	H	0.883039	-0.379389	-0.907277
H105	H	0.628126	-0.124268	-0.907403
C106	C	0.651969	-0.809129	-0.297917
H107	H	0.632058	-0.785076	-0.257868
H108	H	0.671980	-0.830437	-0.252179
H109	H	0.629180	-0.830426	-0.338075
H110	H	0.628157	-0.124227	-1.106471
C111	C	0.688808	-0.184880	-1.237323
H112	H	0.664128	-0.160167	-1.262156
H113	H	0.679751	-0.218615	-1.262113
H114	H	0.722561	-0.175836	-1.262159
C115	C	0.061972	-0.322227	-0.647253
H116	H	0.037892	-0.342162	-0.687197
H117	H	0.083254	-0.344983	-0.606979
H118	H	0.083291	-0.302248	-0.693113
C119	C	0.564290	-0.181579	-0.365452
H120	H	0.540209	-0.161641	-0.325516
H121	H	0.585610	-0.158826	-0.405741
H122	H	0.585570	-0.201550	-0.319586
C123	C	0.688720	-0.184966	-0.776496
H124	H	0.664025	-0.160267	-0.751695
H125	H	0.722460	-0.175935	-0.751683
H126	H	0.679648	-0.218711	-0.751651
H127	H	0.695033	-1.052439	-0.384443
H128	H	0.883066	-0.379356	-1.106348
C129	C	0.651940	-0.694477	-0.297878
H130	H	0.632048	-0.718594	-0.257828
H131	H	0.629142	-0.673175	-0.338009
H132	H	0.671949	-0.673184	-0.252128
H133	H	0.694878	-0.550102	-0.384261
C134	C	0.825653	-0.443011	-0.647519
H135	H	0.845556	-0.467059	-0.687593
H136	H	0.848442	-0.421710	-0.607380
H137	H	0.805628	-0.421707	-0.693247
C138	C	0.859143	-0.694129	-0.714887
H139	H	0.854354	-0.657706	-0.705247
H140	H	0.851471	-0.703056	-0.785460
H141	H	0.894282	-0.703059	-0.699586
H142	H	0.822392	-0.318740	-0.807774
C143	C	0.198500	-0.355691	-0.714269
H144	H	0.162067	-0.350905	-0.704690
H145	H	0.207435	-0.390809	-0.698749
H146	H	0.207475	-0.348077	-0.784890
H147	H	0.457465	-0.312631	-0.627985
H148	H	0.305346	-0.346120	-0.695080
H149	H	-0.044910	-0.191200	-0.384764
C150	C	-0.052694	-0.322231	-0.647280
H151	H	-0.089124	-0.317433	-0.637687
H152	H	-0.043769	-0.357353	-0.631776
H153	H	-0.043721	-0.314614	-0.717902
H154	H	0.054139	-0.191183	-0.384751
C155	C	0.685295	-0.443254	-0.365016
H156	H	0.665398	-0.467365	-0.324960
H157	H	0.662501	-0.421953	-0.405161
H158	H	0.705303	-0.421958	-0.319270
C159	C	0.198465	-0.148115	-0.298519
H160	H	0.222548	-0.128174	-0.258594
H161	H	0.177139	-0.168081	-0.252659
H162	H	0.177190	-0.125356	-0.338814
H163	H	0.694995	-0.953389	-0.384421
C164	C	0.822327	-0.318799	-1.237250
H165	H	0.846973	-0.343546	-1.262053
H166	H	0.831350	-0.285099	-1.262403
H167	H	0.788541	-0.327877	-1.261753
C168	C	0.313117	-0.148110	-0.298494
H169	H	0.289030	-0.128177	-0.258563
H170	H	0.334440	-0.125352	-0.338767
H171	H	0.334393	-0.168082	-0.252622
C172	C	0.859182	-0.808780	-0.714921
H173	H	0.854412	-0.845219	-0.705314
H174	H	0.894310	-0.799803	-0.699610
H175	H	0.851505	-0.799803	-0.785496
C176	C	0.825800	-0.945358	-0.647727
H177	H	0.845704	-0.969408	-0.687796
H178	H	0.848588	-0.924052	-0.607598
H179	H	0.805771	-0.924059	-0.693460
H180	H	0.816135	-0.549879	-0.628361
H181	H	0.816288	-1.052241	-0.628525
