data_functionalizedCrystal
_audit_creation_method	'MofGen! by Chris Wilmer'
_symmetry_space_group_name_H-M	'P1'
_symmetry_Int_Tables_number	1
_symmetry_cell_setting	triclinic
loop_
_symmetry_equiv_pos_as_xyz
  x,y,z
_cell_length_a	16.625548
_cell_length_b	16.625546
_cell_length_c	19.805399
_cell_angle_alpha	89.970726
_cell_angle_beta	89.984078
_cell_angle_gamma	90.023536
loop_
_atom_site_label
_atom_site_type_symbol
_atom_site_fract_x
_atom_site_fract_y
_atom_site_fract_z
Zn1	Zn	1.232643	-0.320986	-0.382701
Zn2	Zn	1.732643	0.179014	0.117299
Zn3	Zn	1.232558	-0.455827	-0.269512
Zn4	Zn	1.732558	0.044173	0.230488
Zn5	Zn	1.097816	-0.321014	-0.269527
Zn6	Zn	1.597816	0.178986	0.230473
Zn7	Zn	1.097776	-0.455783	-0.382661
Zn8	Zn	1.597776	0.044217	0.117339
O9	O	1.165198	-0.388402	-0.326100
O10	O	1.665198	0.111598	0.173900
O11	O	1.345464	-0.338880	-0.367697
O12	O	1.845464	0.161120	0.132303
O13	O	1.214665	-0.437973	-0.174798
O14	O	1.714665	0.062027	0.325202
O15	O	1.115754	-0.208178	-0.284563
O16	O	1.615754	0.291822	0.215437
O17	O	1.345401	-0.437946	-0.284537
O18	O	1.845401	0.062054	0.215463
O19	O	1.214811	-0.208157	-0.367711
O20	O	1.714811	0.291843	0.132289
O21	O	1.115671	-0.338927	-0.174809
O22	O	1.615671	0.161073	0.325191
O23	O	0.984978	-0.338885	-0.284524
O24	O	1.484978	0.161115	0.215476
O25	O	1.115685	-0.437872	-0.477383
O26	O	1.615685	0.062128	0.022617
O27	O	0.984949	-0.437899	-0.367643
O28	O	1.484949	0.062101	0.132357
O29	O	1.214772	-0.338837	-0.477412
O30	O	1.714772	0.161163	0.022588
O31	O	1.214626	-0.568653	-0.284498
O32	O	1.714626	-0.068653	0.215502
O33	O	1.115602	-0.568621	-0.367628
O34	O	1.615602	-0.068621	0.132372
C35	C	0.955707	-0.388391	-0.326081
C36	C	1.455707	0.111609	0.173919
C37	C	0.866086	-0.388405	-0.326089
C38	C	1.366086	0.111595	0.173911
C39	C	0.537911	-0.388411	-0.326118
C40	C	1.037911	0.111589	0.173882
C41	C	0.629219	-0.388407	-0.326108
C42	C	1.129219	0.111593	0.173892
C43	C	0.701996	-0.388409	-0.326103
C44	C	1.201996	0.111591	0.173897
C45	C	0.793310	-0.388404	-0.326094
C46	C	1.293310	0.111596	0.173906
C47	C	1.165122	-0.597893	-0.326072
C48	C	1.665122	-0.097893	0.173928
C49	C	1.165163	-0.687514	-0.326082
C50	C	1.665163	-0.187514	0.173918
C51	C	1.165304	-1.015690	-0.326153
C52	C	1.665304	-0.515690	0.173847
C53	C	1.165262	-0.924382	-0.326135
C54	C	1.665262	-0.424382	0.173865
C55	C	1.165233	-0.851605	-0.326117
C56	C	1.665233	-0.351605	0.173883
C57	C	1.165192	-0.760291	-0.326100
C58	C	1.665192	-0.260291	0.173900
C59	C	1.375507	-0.388415	-0.326120
C60	C	1.875507	0.111585	0.173880
C61	C	1.465128	-0.388420	-0.326128
C62	C	1.965128	0.111580	0.173872
C63	C	1.165234	-0.388347	-0.502643
C64	C	1.665234	0.111653	-0.002643
C65	C	1.165249	-0.388323	-0.577875
C66	C	1.665249	0.111677	-0.077875
C67	C	1.165297	-0.178094	-0.326144
C68	C	1.665297	0.321906	0.173856
C69	C	1.165339	-0.088472	-0.326162
C70	C	1.665339	0.411528	0.173838
C71	C	1.113717	-0.336745	-0.613225
C72	C	1.613717	0.163255	-0.113225
C73	C	1.113728	-0.336729	-0.683913
C74	C	1.613728	0.163271	-0.183913
C75	C	1.165276	-0.388288	-0.719251
C76	C	1.665276	0.111712	-0.219251
C77	C	1.216809	-0.439872	-0.683896
C78	C	1.716809	0.060128	-0.183896
C79	C	1.216794	-0.439891	-0.613209
C80	C	1.716794	0.060109	-0.113209
C81	C	1.216873	-0.439796	-0.968970
C82	C	1.716873	0.060204	-0.468970
C83	C	1.216887	-0.439771	-1.039662
C84	C	1.716887	0.060229	-0.539662
C85	C	1.113808	-0.336634	-1.039674
C86	C	1.613808	0.163366	-0.539674
C87	C	1.113792	-0.336653	-0.968987
C88	C	1.613792	0.163347	-0.468987
C89	C	1.165323	-0.388240	-0.933638
C90	C	1.665323	0.111760	-0.433638
C91	C	1.165309	-0.388257	-0.856990
C92	C	1.665309	0.111743	-0.356990
C93	C	1.165294	-0.388267	-0.795898
C94	C	1.665294	0.111733	-0.295898
C95	C	1.165209	-0.388400	-0.150244
C96	C	1.665209	0.111600	0.349756
C97	C	1.165351	-0.388197	-0.075013
C98	C	1.665351	0.111803	0.424987
H99	H	1.071746	-0.294755	-0.584458
H100	H	1.571746	0.205245	-0.084458
Br101	Br	1.286760	-0.509853	-0.731854
Br102	Br	1.786760	-0.009853	-0.231854
H103	H	1.071820	-0.294666	-0.940218
H104	H	1.571820	0.205334	-0.440218
H105	H	1.258762	-0.481885	-0.584428
H106	H	1.758762	0.018115	-0.084428
H107	H	1.071763	-0.294732	-0.712692
H108	H	1.571763	0.205268	-0.212692
H109	H	1.071847	-0.294632	-1.068463
H110	H	1.571847	0.205368	-0.568463
H111	H	1.258865	-0.481760	-1.068432
H112	H	1.758865	0.018240	-0.568432
H113	H	1.258824	-0.481810	-0.940198
H114	H	1.758824	0.018190	-0.440198
