data_functionalizedCrystal
_audit_creation_method	'MofGen! by Chris Wilmer'
_symmetry_space_group_name_H-M	'P1'
_symmetry_Int_Tables_number	1
_symmetry_cell_setting	triclinic
loop_
_symmetry_equiv_pos_as_xyz
  x,y,z
_cell_length_a	17.077404
_cell_length_b	29.839131
_cell_length_c	17.077396
_cell_angle_alpha	90.031913
_cell_angle_beta	90.019501
_cell_angle_gamma	90.041645
loop_
_atom_site_label
_atom_site_type_symbol
_atom_site_fract_x
_atom_site_fract_y
_atom_site_fract_z
Zn1	Zn	1.199954	-0.178851	0.443824
Zn2	Zn	1.699954	0.321149	0.943824
Zn3	Zn	1.199818	-0.253981	0.312550
Zn4	Zn	1.699818	0.246019	0.812550
Zn5	Zn	1.068685	-0.178866	0.312572
Zn6	Zn	1.568685	0.321134	0.812572
Zn7	Zn	1.068611	-0.253955	0.443774
Zn8	Zn	1.568611	0.246045	0.943774
O9	O	1.134267	-0.216413	0.378180
O10	O	1.634267	0.283587	0.878180
O11	O	1.309782	-0.188821	0.426422
O12	O	1.809782	0.311179	0.926422
O13	O	1.182398	-0.244035	0.202706
O14	O	1.682398	0.255965	0.702706
O15	O	1.086186	-0.115997	0.330013
O16	O	1.586186	0.384003	0.830013
O17	O	1.309683	-0.244020	0.329976
O18	O	1.809683	0.255980	0.829976
O19	O	1.182628	-0.115986	0.426443
O20	O	1.682628	0.384014	0.926443
O21	O	1.086055	-0.188848	0.202722
O22	O	1.586055	0.311152	0.702722
O23	O	0.958829	-0.188822	0.329964
O24	O	1.458829	0.311178	0.829964
O25	O	1.086059	-0.243974	0.553627
O26	O	1.586059	0.256026	1.053627
O27	O	0.958774	-0.243989	0.426358
O28	O	1.458774	0.256011	0.926358
O29	O	1.182556	-0.188796	0.553664
O30	O	1.682556	0.311204	1.053664
O31	O	1.182325	-0.316845	0.329927
O32	O	1.682325	0.183155	0.829927
O33	O	1.085928	-0.316825	0.426336
O34	O	1.585928	0.183175	0.926336
C35	C	0.930319	-0.216405	0.378158
C36	C	1.430319	0.283595	0.878158
C37	C	0.843069	-0.216412	0.378168
C38	C	1.343069	0.283588	0.878168
C39	C	0.802071	-0.245181	0.428279
C40	C	1.302071	0.254819	0.928279
C41	C	0.720091	-0.245182	0.428292
C42	C	1.220091	0.254818	0.928292
C43	C	0.679110	-0.216416	0.378188
C44	C	1.179110	0.283584	0.878188
C45	C	0.720114	-0.187644	0.328074
C46	C	1.220114	0.312356	0.828074
C47	C	0.802093	-0.187641	0.328066
C48	C	1.302093	0.312359	0.828066
C49	C	0.549244	-0.187653	0.328093
C50	C	1.049244	0.312347	0.828093
C51	C	0.467259	-0.187657	0.328100
C52	C	0.967259	0.312343	0.828100
C53	C	0.467242	-0.245194	0.428319
C54	C	0.967242	0.254806	0.928319
C55	C	0.549221	-0.245191	0.428311
C56	C	1.049221	0.254809	0.928311
C57	C	0.590219	-0.216420	0.378196
C58	C	1.090219	0.283580	0.878196
C59	C	1.134125	-0.333136	0.378141
C60	C	1.634125	0.166864	0.878141
C61	C	1.134136	-0.383070	0.378151
C62	C	1.634136	0.116930	0.878151
C63	C	1.184552	-0.692711	0.328053
C64	C	1.684552	-0.192711	0.828053
C65	C	1.184649	-0.880384	0.328083
C66	C	1.684649	-0.380384	0.828083
O67	O	1.227402	-0.904647	0.285459
O68	O	1.727402	-0.404647	0.785459
N69	N	1.134430	-0.903855	0.378239
N70	N	1.634430	-0.403855	0.878239
C71	C	1.084186	-0.880405	0.428394
C72	C	1.584186	-0.380405	0.928394
O73	O	1.041479	-0.904675	0.471061
O74	O	1.541479	-0.404675	0.971061
C75	C	1.084094	-0.692733	0.428367
C76	C	1.584094	-0.192733	0.928367
C77	C	1.134311	-0.669264	0.378203
C78	C	1.634311	-0.169264	0.878203
C79	C	1.234766	-0.669242	0.277893
C80	C	1.734766	-0.169242	0.777893
C81	C	1.234738	-0.622327	0.277883
C82	C	1.734738	-0.122327	0.777883
C83	C	1.184497	-0.598880	0.328033
C84	C	1.684497	-0.098880	0.828033
C85	C	1.134283	-0.622349	0.378193
C86	C	1.634283	-0.122349	0.878193
C87	C	1.033855	-0.669284	0.478526
C88	C	1.533855	-0.169284	0.978526
C89	C	1.033837	-0.622363	0.478516
C90	C	1.533837	-0.122363	0.978516
C91	C	1.084055	-0.598894	0.428352
C92	C	1.584055	-0.098894	0.928352
C93	C	1.084014	-0.551987	0.428332
C94	C	1.584014	-0.051987	0.928332
N95	N	1.134233	-0.528516	0.378177
N96	N	1.634233	-0.028516	0.878177
C97	C	1.184475	-0.551962	0.328027
C98	C	1.684475	-0.051962	0.828027
C99	C	1.084237	-0.978936	0.428404
C100	C	1.584237	-0.478936	0.928404
C101	C	1.084259	-1.025854	0.428410
C102	C	1.584259	-0.525854	0.928410
C103	C	1.184723	-1.025829	0.328100
C104	C	1.684723	-0.525829	0.828100
C105	C	1.184697	-0.978911	0.328090
C106	C	1.684697	-0.478911	0.828090
C107	C	1.134457	-0.955465	0.378248
C108	C	1.634457	-0.455465	0.878248
C109	C	1.184412	-0.453437	0.328009
C110	C	1.684412	0.046563	0.828009
C111	C	1.184378	-0.406517	0.328001
C112	C	1.684378	0.093483	0.828001
C113	C	1.083917	-0.406545	0.428314
C114	C	1.583917	0.093455	0.928314
C115	C	1.083948	-0.453461	0.428319
C116	C	1.583948	0.046539	0.928319
C117	C	1.134202	-0.476905	0.378164
C118	C	1.634202	0.023095	0.878164
O119	O	1.041290	-0.527695	0.470941
O120	O	1.541290	-0.027695	0.970941
O121	O	1.227188	-0.527685	0.285378
O122	O	1.727188	-0.027685	0.785378
C123	C	1.184580	-0.739627	0.328063
C124	C	1.684580	-0.239627	0.828063
C125	C	1.134366	-0.763095	0.378223
C126	C	1.634366	-0.263095	0.878223
C127	C	1.084125	-0.739649	0.428373
C128	C	1.584125	-0.239649	0.928373
C129	C	1.134388	-0.810013	0.378229
C130	C	1.634388	-0.310013	0.878229
C131	C	1.184630	-0.833460	0.328079
C132	C	1.684630	-0.333460	0.828079
C133	C	1.234849	-0.809989	0.277923
C134	C	1.734849	-0.309989	0.777923
C135	C	1.234822	-0.763073	0.277913
C136	C	1.734822	-0.263073	0.777913
C137	C	1.033905	-0.763120	0.478529
C138	C	1.533905	-0.263120	0.978529
C139	C	1.033937	-0.810035	0.478534
C140	C	1.533937	-0.310035	0.978534
C141	C	1.084178	-0.833482	0.428384
C142	C	1.584178	-0.333482	0.928384
C143	C	1.339011	-0.216422	0.378202
C144	C	1.839011	0.283578	0.878202
C145	C	1.426261	-0.216425	0.378212
C146	C	1.926261	0.283575	0.878212
C147	C	1.134314	-0.216380	0.582924
C148	C	1.634314	0.283620	1.082924
C149	C	1.134335	-0.216366	0.670174
C150	C	1.634335	0.283634	1.170174
C151	C	1.134431	-0.099235	0.378236
C152	C	1.634431	0.400765	0.878236
C153	C	1.134500	-0.049300	0.378260
C154	C	1.634500	0.450700	0.878260
C155	C	1.134265	-0.216414	0.174232
C156	C	1.634265	0.283586	0.674232
C157	C	1.134397	-0.216301	0.086983
C158	C	1.634397	0.283699	0.586983
C159	C	1.184582	-0.187632	0.711185
C160	C	1.684582	0.312368	1.211185
C161	C	1.184592	-0.187617	0.793165
C162	C	1.684592	0.312383	1.293165
C163	C	1.134357	-0.216339	0.834134
C164	C	1.634357	0.283661	1.334134
C165	C	1.084104	-0.245074	0.793117
C166	C	1.584104	0.254926	1.293117
C167	C	1.084091	-0.245086	0.711138
C168	C	1.584091	0.254914	1.211138
C169	C	1.084135	-0.245047	0.963987
C170	C	1.584135	0.254953	1.463987
C171	C	1.084149	-0.245035	1.045972
C172	C	1.584149	0.254965	1.545972
C173	C	1.184636	-0.187578	1.046014
C174	C	1.684636	0.312422	1.546014
C175	C	1.184624	-0.187590	0.964035
C176	C	1.684624	0.312410	1.464035
C177	C	1.134371	-0.216326	0.923025
C178	C	1.634371	0.283674	1.423025
H179	H	0.686714	-0.268609	0.469097
H180	H	1.186714	0.231391	0.969097
H181	H	1.043166	-0.268480	0.677748
H182	H	1.543166	0.231520	1.177748
H183	H	1.225588	-0.959805	0.287243
H184	H	1.725588	-0.459805	0.787243
Cl185	Cl	1.020987	-0.281138	1.097474
Cl186	Cl	1.520987	0.218862	1.597474
Cl187	Cl	1.297884	-0.592831	0.214827
Cl188	Cl	1.797884	-0.092831	0.714827
H189	H	0.582622	-0.164220	0.287291
H190	H	1.082622	0.335780	0.787291
H191	H	1.043199	-0.268458	0.826480
H192	H	1.543199	0.231542	1.326480
H193	H	1.043008	-0.387448	0.469143
H194	H	1.543008	0.112552	0.969143
H195	H	1.043059	-0.472570	0.469170
H196	H	1.543059	0.027430	0.969170
Cl197	Cl	0.853582	-0.281348	0.491266
Cl198	Cl	1.353582	0.218652	0.991266
Cl199	Cl	1.020959	-0.281172	0.912432
Cl200	Cl	1.520959	0.218828	1.412432
Cl201	Cl	0.600739	-0.281358	0.491293
Cl202	Cl	1.100739	0.218642	0.991293
H203	H	0.993037	-0.829139	0.519383
H204	H	1.493037	-0.329139	1.019383
Cl205	Cl	1.247743	-0.151525	0.659690
Cl206	Cl	1.747743	0.348475	1.159690
Cl207	Cl	0.415741	-0.151495	0.265108
Cl208	Cl	0.915741	0.348505	0.765108
H209	H	0.433857	-0.268619	0.469126
H210	H	0.933857	0.231381	0.969126
H211	H	0.686741	-0.164221	0.287283
H212	H	1.186741	0.335779	0.787283
H213	H	0.835472	-0.164213	0.287265
H214	H	1.335472	0.335787	0.787265
H215	H	1.225271	-0.387410	0.287148
H216	H	1.725271	0.112590	0.787148
Cl217	Cl	1.247588	-0.482902	0.264954
Cl218	Cl	1.747588	0.017098	0.764954
H219	H	1.275683	-0.688328	0.237055
H220	H	1.775683	-0.188328	0.737055
Cl221	Cl	1.021117	-1.055351	0.491468
Cl222	Cl	1.521117	-0.555351	0.991468
Cl223	Cl	1.247883	-1.055314	0.265054
Cl224	Cl	1.747883	-0.555314	0.765054
H225	H	1.043323	-0.959849	0.469250
H226	H	1.543323	-0.459849	0.969250
Cl227	Cl	0.970738	-0.733651	0.541581
Cl228	Cl	1.470738	-0.233651	1.041581
Cl229	Cl	0.970729	-0.698776	0.541604
Cl230	Cl	1.470729	-0.198776	1.041604
H231	H	0.992926	-0.603275	0.519363
H232	H	1.492926	-0.103275	1.019363
H233	H	1.275713	-0.743969	0.237065
H234	H	1.775713	-0.243969	0.737065
Cl235	Cl	1.298008	-0.839474	0.214877
Cl236	Cl	1.798008	-0.339474	0.714877
H237	H	1.225511	-0.164220	0.826553
H238	H	1.725511	0.335780	1.326553
Cl239	Cl	1.247782	-0.151485	0.912533
Cl240	Cl	1.747782	0.348515	1.412533
H241	H	1.225552	-0.164179	1.079409
H242	H	1.725552	0.335821	1.579409
