data_functionalizedCrystal
_audit_creation_method	'MofGen! by Chris Wilmer'
_symmetry_space_group_name_H-M	'P1'
_symmetry_Int_Tables_number	1
_symmetry_cell_setting	triclinic
loop_
_symmetry_equiv_pos_as_xyz
  x,y,z
_cell_length_a	12.759401
_cell_length_b	16.625539
_cell_length_c	12.759399
_cell_angle_alpha	90.026183
_cell_angle_beta	89.984458
_cell_angle_gamma	89.982481
loop_
_atom_site_label
_atom_site_type_symbol
_atom_site_fract_x
_atom_site_fract_y
_atom_site_fract_z
Zn1	Zn	1.606241	-0.455856	0.418252
Zn2	Zn	1.606137	-0.321028	0.593954
Zn3	Zn	1.430546	-0.321043	0.418291
Zn4	Zn	1.430530	-0.455825	0.593891
O5	O	1.518364	-0.388438	0.506097
O6	O	1.753248	-0.437977	0.441570
O7	O	1.582808	-0.208197	0.570693
O8	O	1.453903	-0.338946	0.271264
O9	O	1.753172	-0.338919	0.570657
O10	O	1.582985	-0.437992	0.271237
O11	O	1.453802	-0.208209	0.441635
O12	O	1.283523	-0.338916	0.441574
O13	O	1.453875	-0.568661	0.570550
O14	O	1.283511	-0.437939	0.570587
O15	O	1.582969	-0.568684	0.441509
O16	O	1.582793	-0.338890	0.740966
O17	O	1.453775	-0.437924	0.740921
C18	C	1.245396	-0.388427	0.506079
C19	C	1.128620	-0.388441	0.506096
C20	C	1.073798	-0.440100	0.439002
C21	C	0.964074	-0.440105	0.439013
C22	C	0.964003	-0.336790	0.573221
C23	C	1.073725	-0.336782	0.573204
C24	C	1.518432	-0.598747	0.506019
C25	C	1.518461	-0.688368	0.505985
C26	C	1.518510	-1.016544	0.505868
C27	C	1.518493	-0.925235	0.505904
C28	C	1.518486	-0.852459	0.505927
C29	C	1.518468	-0.761145	0.505962
C30	C	1.792397	-0.388450	0.506116
C31	C	1.909174	-0.388455	0.506124
C32	C	1.518299	-0.388420	0.779064
C33	C	1.518368	-0.388439	0.895841
C34	C	1.518356	-0.178947	0.506099
C35	C	1.518531	-0.089326	0.505837
C36	C	1.518457	-0.388474	0.232064
C37	C	1.518497	-0.388489	0.115287
C38	C	1.585624	-0.336930	0.950692
C39	C	1.585692	-0.336957	1.060416
C40	C	1.451238	-0.440004	1.060428
C41	C	1.451176	-0.439980	0.950706
H42	H	1.118362	-0.294711	0.627841
O43	O	1.386111	-0.490103	1.113844
C44	C	1.371967	-0.599010	1.237587
C45	C	1.445845	-0.542313	1.177181
H46	H	1.420234	-0.641247	1.288793
H47	H	1.317104	-0.562008	1.289106
H48	H	1.323863	-0.635785	1.179514
H49	H	1.494017	-0.505525	1.235178
H50	H	1.500639	-0.579361	1.125647
H51	H	1.396408	-0.481929	0.906044
H52	H	0.919443	-0.482169	0.384377
O53	O	1.650995	-0.286843	0.897557
C54	C	1.784318	-0.184604	0.909131
C55	C	1.710353	-0.241300	0.969432
H56	H	1.832313	-0.147756	0.967215
H57	H	1.839269	-0.221607	0.857707
H58	H	1.736066	-0.142434	0.857816
H59	H	1.758521	-0.283481	1.020804
H60	H	1.655399	-0.204247	1.020789
H61	H	1.118490	-0.482161	0.384356
O62	O	1.651048	-0.287041	1.113860
C63	C	1.710833	-0.241481	1.282884
C64	C	1.636738	-0.298035	1.222491
H65	H	1.699274	-0.250338	1.370723
H66	H	1.795521	-0.255752	1.261255
H67	H	1.692507	-0.176435	1.261373
H68	H	1.654969	-0.363100	1.243970
H69	H	1.552072	-0.283695	1.244125
O70	O	0.910514	-0.286692	0.638379
C71	C	0.741450	-0.240886	0.697844
C72	C	0.801892	-0.297675	0.624014
H73	H	0.653619	-0.249734	0.686240
H74	H	0.762945	-0.254932	0.782604
H75	H	0.763052	-0.175902	0.679294
H76	H	0.780322	-0.362679	0.642470
H77	H	0.780392	-0.283561	0.539276
