data_functionalizedCrystal
_audit_creation_method	'MofGen! by Chris Wilmer'
_symmetry_space_group_name_H-M	'P1'
_symmetry_Int_Tables_number	1
_symmetry_cell_setting	triclinic
loop_
_symmetry_equiv_pos_as_xyz
  x,y,z
_cell_length_a	12.837942
_cell_length_b	12.837943
_cell_length_c	11.892095
_cell_angle_alpha	94.310562
_cell_angle_beta	94.302569
_cell_angle_gamma	85.171060
loop_
_atom_site_label
_atom_site_type_symbol
_atom_site_fract_x
_atom_site_fract_y
_atom_site_fract_z
O1	O	0.266110	-1.408367	-0.093982
O2	O	0.252667	-1.105234	-0.093989
O3	O	0.107822	-1.250078	-0.093979
O4	O	0.410955	-1.263522	-0.093992
O5	O	0.119879	-1.237999	0.094028
O6	O	0.264723	-1.093155	0.094018
O7	O	0.278167	-1.396288	0.094025
Zn8	Zn	0.273359	-1.242803	0.123871
Zn9	Zn	0.257474	-1.258718	-0.123836
O10	O	0.423011	-1.251443	0.094014
C11	C	0.254153	-1.060125	0.000014
C12	C	0.240609	-0.943710	0.000011
C13	C	0.074781	-1.239497	0.000024
C14	C	-0.041634	-1.225953	0.000022
C15	C	0.276680	-1.441397	0.000020
C16	C	0.290224	-1.557812	0.000015
C17	C	-0.266509	-1.388784	0.000002
C18	C	-0.375892	-1.376062	-0.000000
C19	C	-0.369784	-1.187791	0.000007
C20	C	-0.260402	-1.200512	0.000009
C21	C	-0.208768	-1.301011	0.000008
C22	C	-0.099383	-1.313731	0.000019
C23	C	-0.093278	-1.125461	0.000018
C24	C	-0.202660	-1.112740	0.000016
C25	C	0.456052	-1.262024	0.000009
C26	C	0.572467	-1.275569	0.000004
N27	N	0.284200	-1.231950	0.292925
C28	C	0.403439	-0.718835	0.000020
C29	C	0.390717	-0.609453	0.000019
C30	C	0.202446	-0.615561	0.000015
C31	C	0.215167	-0.724943	0.000017
C32	C	0.315667	-0.776577	0.000017
C33	C	0.328387	-0.885961	0.000011
C34	C	0.140117	-0.892066	0.000015
C35	C	0.127395	-0.782684	0.000014
N36	N	0.246626	-1.269579	-0.292889
C37	C	0.171130	-1.345098	0.529580
C38	C	0.178716	-1.337519	0.647922
C39	C	0.306952	-1.209210	0.647951
C40	C	0.299366	-1.216788	0.529610
C41	C	0.231454	-1.284736	0.470428
C42	C	0.223874	-1.292319	0.352085
C43	C	0.352104	-1.164005	0.352116
C44	C	0.359690	-1.156426	0.470458
H45	H	-0.057344	-1.395563	0.000022
C46	C	0.093270	-0.559632	-0.000158
C47	C	0.033360	-0.594300	-0.096871
C48	C	-0.067221	-0.542811	-0.097062
H49	H	0.098122	-0.486212	-0.000213
H50	H	0.060819	-0.574626	0.065369
H51	H	0.065803	-0.579299	-0.162381
H52	H	0.028479	-0.667713	-0.096837
H53	H	-0.099672	-0.557805	-0.031535
H54	H	-0.062359	-0.469393	-0.097114
H55	H	-0.107885	-0.566333	-0.162675
H56	H	0.485269	-0.760876	0.000019
C57	C	0.113172	-1.403181	0.711941
C58	C	0.052094	-1.464321	0.634778
C59	C	-0.008293	-1.524831	0.693710
H60	H	0.068728	-1.358372	0.758118
H61	H	0.158091	-1.447581	0.758072
H62	H	0.007180	-1.419925	0.588666
H63	H	0.096511	-1.509151	0.588598
H64	H	0.036626	-1.569231	0.739841
H65	H	-0.052730	-1.480014	0.739886
H66	H	-0.049734	-1.566329	0.641365
C67	C	-0.210374	-1.497852	0.000239
C68	C	-0.141578	-1.504449	0.096980
C69	C	-0.089861	-1.604912	0.097244
H70	H	-0.171944	-1.511048	-0.065245
H71	H	-0.260396	-1.548334	0.000301
H72	H	-0.091563	-1.453983	0.096908
H73	H	-0.179981	-1.491273	0.162480
H74	H	-0.139883	-1.655394	0.097306
H75	H	-0.051438	-1.618099	0.031756
H76	H	-0.043184	-1.609405	0.162886
C77	C	-0.438395	-1.471485	0.000053
C78	C	-0.369757	-1.562214	0.000079
C79	C	-0.427296	-1.650140	0.000141
H80	H	-0.485400	-1.474791	-0.065492
H81	H	-0.476968	-1.466285	0.065641
H82	H	-0.331202	-1.567413	-0.065502
H83	H	-0.322751	-1.558943	0.065619
H84	H	-0.465869	-1.644940	0.065729
H85	H	-0.474300	-1.653435	-0.065404
H86	H	-0.380734	-1.711708	0.000170
H87	H	-0.411844	-1.105969	-0.000004
C88	C	0.018214	-0.726766	-0.000169
C89	C	-0.041682	-0.761448	-0.096886
C90	C	-0.142270	-0.709972	-0.097090
H91	H	0.023056	-0.653345	-0.000227
H92	H	-0.014240	-0.741762	0.065355
H93	H	-0.009236	-0.746444	-0.162393
H94	H	-0.046553	-0.834862	-0.096849
H95	H	-0.174724	-0.724968	-0.031566
H96	H	-0.137418	-0.636553	-0.097145
H97	H	-0.182925	-0.733503	-0.162706
C98	C	-0.258913	-1.003713	0.000078
C99	C	-0.367063	-1.011354	0.000102
C100	C	-0.418912	-0.910938	0.000179
H101	H	-0.244054	-0.971231	-0.065460
H102	H	-0.235590	-0.962898	0.065673
H103	H	-0.390378	-1.052153	-0.065486
H104	H	-0.381953	-1.043818	0.065636
H105	H	-0.395590	-0.870123	0.065773
H106	H	-0.404045	-0.878464	-0.065361
H107	H	-0.492297	-0.916108	0.000205
H108	H	0.168579	-1.347647	0.303901
H109	H	0.462191	-0.562444	0.000024
H110	H	-0.046252	-1.053990	0.000033
C111	C	0.097355	-1.418723	0.465159
C112	C	0.023391	-1.361008	0.397191
C113	C	-0.044567	-1.428807	0.337813
H114	H	0.062408	-1.453635	0.517194
H115	H	0.136379	-1.468946	0.418929
H116	H	-0.015628	-1.310804	0.443417
H117	H	0.058307	-1.326099	0.345134
H118	H	-0.005543	-1.479030	0.291583
H119	H	-0.079505	-1.463715	0.389857
H120	H	-0.094753	-1.389659	0.291683
C121	C	0.044734	-0.954618	0.000189
C122	C	-0.008973	-0.923627	0.096897
C123	C	-0.096849	-0.981218	0.097083
H124	H	0.066561	-1.027174	0.000245
H125	H	-0.000285	-0.942132	-0.065341
H126	H	0.036038	-0.936121	0.162410
H127	H	-0.030825	-0.851080	0.096862
H128	H	-0.141868	-0.968732	0.031553
H129	H	-0.075012	-1.053771	0.097135
H130	H	-0.133305	-0.960192	0.162692
H131	H	0.410219	-0.928000	0.000013
H132	H	0.362237	-1.153882	0.696151
C133	C	0.433401	-1.082761	0.534921
C134	C	0.427153	-1.089060	0.651221
C135	C	0.495054	-1.021227	0.710636
H136	H	0.413931	-1.012964	0.515678
H137	H	0.503180	-1.102287	0.515588
H138	H	0.357390	-1.069528	0.670545
H139	H	0.446632	-1.158841	0.670497
H140	H	0.564833	-1.040752	0.691304
H141	H	0.475578	-0.951434	0.691384
H142	H	0.490832	-1.025498	0.789551
C143	C	0.417670	-1.098648	0.287752
C144	C	0.482917	-1.165102	0.219787
C145	C	0.543326	-1.104940	0.160471
H146	H	0.459291	-1.057091	0.339825
H147	H	0.372761	-1.054326	0.241526
H148	H	0.527822	-1.209406	0.266010
H149	H	0.441324	-1.206659	0.167694
H150	H	0.498417	-1.060618	0.114244
H151	H	0.584941	-1.063385	0.212551
H152	H	0.587597	-1.150019	0.114342
