data_functionalizedCrystal
_audit_creation_method	'MofGen! by Chris Wilmer'
_symmetry_space_group_name_H-M	'P1'
_symmetry_Int_Tables_number	1
_symmetry_cell_setting	triclinic
loop_
_symmetry_equiv_pos_as_xyz
  x,y,z
_cell_length_a	18.050589
_cell_length_b	18.215407
_cell_length_c	18.215399
_cell_angle_alpha	89.982632
_cell_angle_beta	89.976397
_cell_angle_gamma	90.025664
loop_
_atom_site_label
_atom_site_type_symbol
_atom_site_fract_x
_atom_site_fract_y
_atom_site_fract_z
Zn1	Zn	-0.295718	1.125055	-0.416090
Zn2	Zn	0.204282	1.625055	0.083910
Zn3	Zn	-0.419913	1.124956	-0.293033
Zn4	Zn	0.080087	1.624956	0.206967
Zn5	Zn	-0.295736	1.001987	-0.293042
Zn6	Zn	0.204264	1.501987	0.206958
Zn7	Zn	-0.419865	1.001946	-0.416063
Zn8	Zn	0.080135	1.501946	0.083937
O9	O	-0.357808	1.063486	-0.354557
O10	O	0.142192	1.563486	0.145443
O11	O	-0.312205	1.228026	-0.399773
O12	O	0.187795	1.728026	0.100227
O13	O	-0.403468	1.108620	-0.190050
O14	O	0.096532	1.608620	0.309950
O15	O	-0.191809	1.018371	-0.309380
O16	O	0.308191	1.518371	0.190620
O17	O	-0.403451	1.227953	-0.309364
O18	O	0.096549	1.727953	0.190636
O19	O	-0.191796	1.108788	-0.399782
O20	O	0.308204	1.608788	0.100218
O21	O	-0.312235	1.018275	-0.190057
O22	O	0.187765	1.518275	0.309943
O23	O	-0.312189	0.898998	-0.309354
O24	O	0.187811	1.398998	0.190646
O25	O	-0.403369	1.018301	-0.519051
O26	O	0.096631	1.518301	-0.019051
O27	O	-0.403386	0.898967	-0.399737
O28	O	0.096614	1.398967	0.100263
O29	O	-0.312159	1.108748	-0.519070
O30	O	0.187841	1.608748	-0.019070
O31	O	-0.523831	1.108580	-0.309338
O32	O	-0.023831	1.608580	0.190662
O33	O	-0.523796	1.018205	-0.399727
O34	O	-0.023796	1.518205	0.100273
C35	C	-0.357785	0.872280	-0.354544
C36	C	0.142215	1.372280	0.145456
C37	C	-0.357793	0.790481	-0.354556
C38	C	0.142207	1.290481	0.145444
C39	C	-0.310379	0.602324	-0.401707
C40	C	0.189621	1.102324	0.098293
C41	C	-0.310386	0.525465	-0.401709
C42	C	0.189614	1.025465	0.098291
C43	C	-0.405257	0.525400	-0.307420
C44	C	0.094743	1.025400	0.192580
C45	C	-0.405246	0.602258	-0.307415
C46	C	0.094754	1.102258	0.192585
C47	C	-0.357809	0.640717	-0.354562
C48	C	0.142191	1.140717	0.145438
C49	C	-0.357826	0.487001	-0.354570
C50	C	0.142174	0.987001	0.145430
C51	C	-0.357833	0.403668	-0.354572
C52	C	0.142167	0.903668	0.145428
C53	C	-0.357800	0.724056	-0.354559
C54	C	0.142200	1.224056	0.145441
C55	C	-0.550760	1.063397	-0.354545
C56	C	-0.050760	1.563397	0.145455
C57	C	-0.633306	1.063427	-0.354564
C58	C	-0.133306	1.563427	0.145436
C59	C	-0.832764	1.014329	-0.403701
C60	C	-0.332764	1.514329	0.096299
C61	C	-0.882204	0.996389	-0.336547
C62	C	-0.382204	1.496389	0.163453
C63	C	-0.784436	1.063499	-0.354574
C64	C	-0.284436	1.563499	0.145426
C65	C	-0.882078	1.081475	-0.421735
C66	C	-0.382078	1.581475	0.078265
C67	C	-0.930421	1.063567	-0.354589
C68	C	-0.430421	1.563567	0.145411
C69	C	-0.832788	1.045524	-0.287385
C70	C	-0.332788	1.545524	0.212615
C71	C	-0.832658	1.130641	-0.372617
C72	C	-0.332658	1.630641	0.127383
C73	C	-0.882076	1.112726	-0.305418
C74	C	-0.382076	1.612726	0.194582
C75	C	-0.700338	1.063458	-0.354566
C76	C	-0.200338	1.563458	0.145434
C77	C	-1.014518	1.063609	-0.354589
C78	C	-0.514518	1.563609	0.145411
C79	C	-0.164102	1.063595	-0.354585
C80	C	0.335898	1.563595	0.145415
C81	C	-0.081556	1.063642	-0.354597
C82	C	0.418444	1.563642	0.145403
C83	C	-0.357757	1.063531	-0.546510
C84	C	0.142243	1.563531	-0.046510
C85	C	-0.357735	1.063550	-0.628309
C86	C	0.142265	1.563550	-0.128309
C87	C	-0.357831	1.255439	-0.354570
C88	C	0.142169	1.755439	0.145430
C89	C	-0.357841	1.337238	-0.354576
C90	C	0.142159	1.837238	0.145424
C91	C	-0.310197	1.110663	-0.816514
C92	C	0.189803	1.610663	-0.316514
C93	C	-0.310175	1.110672	-0.893373
C94	C	0.189825	1.610672	-0.393373
C95	C	-0.405158	1.016489	-0.893341
C96	C	0.094842	1.516489	-0.393341
C97	C	-0.405175	1.016477	-0.816484
C98	C	0.094825	1.516477	-0.316484
C99	C	-0.357696	1.063568	-0.778072
C100	C	0.142304	1.563568	-0.278072
C101	C	-0.357657	1.063589	-0.931789
C102	C	0.142343	1.563589	-0.431789
C103	C	-0.357634	1.063598	-1.015122
C104	C	0.142366	1.563598	-0.515122
C105	C	-0.357718	1.063558	-0.694733
C106	C	0.142282	1.563558	-0.194733
C107	C	-0.357805	1.063484	-0.163351
C108	C	0.142195	1.563484	0.336649
C109	C	-0.357618	1.063607	-0.081552
C110	C	0.142382	1.563607	0.418448
H111	H	-0.271763	0.494208	-0.440098
H112	H	0.228237	0.994208	0.059902
O113	O	-0.451254	0.639672	-0.261641
O114	O	0.048746	1.139672	0.238359
C115	C	-0.493311	0.758050	-0.219881
C116	C	0.006689	1.258050	0.280119
C117	C	-0.441163	0.715770	-0.271743
C118	C	0.058837	1.215770	0.228257
H119	H	-0.485182	0.819582	-0.228042
H120	H	0.014818	1.319582	0.271958
H121	H	-0.480197	0.742977	-0.160546
H122	H	0.019803	1.242977	0.339454
H123	H	-0.553205	0.742883	-0.232699
H124	H	-0.053205	1.242883	0.267301
H125	H	-0.381252	0.730914	-0.258992
H126	H	0.118748	1.230914	0.241008
H127	H	-0.454341	0.730847	-0.331064
H128	H	0.045659	1.230847	0.168936
O129	O	-0.907872	1.099715	-0.489463
O130	O	-0.407872	1.599715	0.010537
C131	C	-0.910769	1.190501	-0.585663
C132	C	-0.410769	1.690501	-0.085663
C133	C	-0.881525	1.169952	-0.508948
C134	C	-0.381525	1.669952	-0.008948
H135	H	-0.889467	1.247282	-0.601447
H136	H	-0.389467	1.747282	-0.101447
H137	H	-0.973922	1.190940	-0.584911
H138	H	-0.473922	1.690940	-0.084911
H139	H	-0.890527	1.148463	-0.627451
H140	H	-0.390527	1.648463	-0.127451
H141	H	-0.901713	1.211970	-0.467118
H142	H	-0.401713	1.711970	0.032882
H143	H	-0.818375	1.169491	-0.509761
H144	H	-0.318375	1.669491	-0.009761
H145	H	-0.443853	0.978122	-0.785184
H146	H	0.056147	1.478122	-0.285184
H147	H	-0.811111	0.972687	-0.445187
H148	H	-0.311111	1.472687	0.054813
O149	O	-0.264003	1.156424	-0.779314
O150	O	0.235997	1.656424	-0.279314
C151	C	-0.169819	1.249867	-0.787462
C152	C	0.330181	1.749867	-0.287462
C153	C	-0.222087	1.198070	-0.829679
C154	C	0.277913	1.698070	-0.329679
H155	H	-0.135927	1.283562	-0.828163
H156	H	0.364073	1.783562	-0.328163
H157	H	-0.130943	1.216129	-0.751501
H158	H	0.369057	1.716129	-0.251501
H159	H	-0.203936	1.288295	-0.751458
H160	H	0.296064	1.788295	-0.251458
H161	H	-0.188029	1.159632	-0.865722
H162	H	0.311971	1.659632	-0.365722
H163	H	-0.260965	1.231854	-0.865592
H164	H	0.239035	1.731854	-0.365592
H165	H	-0.443880	0.494077	-0.269035
H166	H	0.056120	0.994077	0.230965
O167	O	-0.806948	1.027316	-0.219665
O168	O	-0.306948	1.527316	0.280335
C169	C	-0.699673	1.006898	-0.143673
C170	C	-0.199673	1.506898	0.356327
C171	C	-0.728838	1.027514	-0.220399
C172	C	-0.228838	1.527514	0.279601
H173	H	-0.636519	1.007066	-0.144237
H174	H	-0.136519	1.507066	0.355763
H175	H	-0.720470	0.949851	-0.128185
H176	H	-0.220470	1.449851	0.371815
H177	H	-0.720448	1.048570	-0.101775
H178	H	-0.220448	1.548570	0.398225
H179	H	-0.708076	0.985891	-0.262348
H180	H	-0.208076	1.485891	0.237652
H181	H	-0.708048	1.084579	-0.235825
H182	H	-0.208048	1.584579	0.264175
H183	H	-0.903983	0.939642	-0.321300
H184	H	-0.403983	1.439642	0.178700
H185	H	-0.903591	1.154337	-0.263831
H186	H	-0.403591	1.654337	0.236169
H187	H	-0.271750	0.633635	-0.440095
H188	H	0.228250	1.133635	0.059905
O189	O	-0.806763	1.198380	-0.390758
O190	O	-0.306763	1.698380	0.109242
C191	C	-0.803505	1.327053	-0.360248
C192	C	-0.303505	1.827053	0.139752
C193	C	-0.832896	1.250383	-0.339620
C194	C	-0.332896	1.750383	0.160380
H195	H	-0.824609	1.369115	-0.318906
H196	H	-0.324609	1.869115	0.181094
H197	H	-0.823740	1.342330	-0.417528
H198	H	-0.323740	1.842330	0.082472
H199	H	-0.740355	1.326462	-0.359558
H200	H	-0.240355	1.826462	0.140442
H201	H	-0.896044	1.250915	-0.340267
H202	H	-0.396044	1.750915	0.159733
H203	H	-0.812604	1.235136	-0.282353
H204	H	-0.312604	1.735136	0.217647
O205	O	-0.263954	1.156314	-0.930746
O206	O	0.236046	1.656314	-0.430746
C207	C	-0.163689	1.166280	-1.017563
C208	C	0.336311	1.666280	-0.517563
C209	C	-0.215981	1.114506	-0.975273
C210	C	0.284019	1.614506	-0.475273
H211	H	-0.124900	1.132500	-1.053584
H212	H	0.375100	1.632500	-0.553584
H213	H	-0.129705	1.199917	-0.976935
H214	H	0.370295	1.699917	-0.476935
H215	H	-0.197790	1.204764	-1.053516
H216	H	0.302210	1.704764	-0.553516
H217	H	-0.181937	1.075978	-0.939318
H218	H	0.318063	1.575978	-0.439318
H219	H	-0.249967	1.080921	-1.015940
H220	H	0.250033	1.580921	-0.515940
H221	H	-0.443815	0.978151	-0.924625
H222	H	0.056185	1.478151	-0.424625
