data_functionalizedCrystal
_audit_creation_method	'MofGen! by Chris Wilmer'
_symmetry_space_group_name_H-M	'P1'
_symmetry_Int_Tables_number	1
_symmetry_cell_setting	triclinic
loop_
_symmetry_equiv_pos_as_xyz
  x,y,z
_cell_length_a	25.639239
_cell_length_b	12.594517
_cell_length_c	12.594509
_cell_angle_alpha	90.008045
_cell_angle_beta	89.967420
_cell_angle_gamma	89.967671
loop_
_atom_site_label
_atom_site_type_symbol
_atom_site_fract_x
_atom_site_fract_y
_atom_site_fract_z
Zn1	Zn	-0.208232	-1.627102	-0.601431
Zn2	Zn	0.291768	-1.127102	-0.101431
Zn3	Zn	-0.295672	-1.626922	-0.423434
Zn4	Zn	0.204328	-1.126922	0.076566
Zn5	Zn	-0.208242	-1.449105	-0.423502
Zn6	Zn	0.291758	-0.949105	0.076498
Zn7	Zn	-0.295628	-1.449018	-0.601406
Zn8	Zn	0.204372	-0.949018	-0.101406
O9	O	-0.251944	-1.538037	-0.512443
O10	O	0.248056	-1.038037	-0.012443
O11	O	-0.219845	-1.776024	-0.577801
O12	O	0.280155	-1.276024	-0.077801
O13	O	-0.284097	-1.603295	-0.274497
O14	O	0.215903	-1.103295	0.225503
O15	O	-0.135076	-1.472829	-0.447143
O16	O	0.364924	-0.972829	0.052857
O17	O	-0.284086	-1.775892	-0.447027
O18	O	0.215914	-1.275892	0.052973
O19	O	-0.135068	-1.603603	-0.577867
O20	O	0.364932	-1.103603	-0.077867
O21	O	-0.219863	-1.472654	-0.274547
O22	O	0.280137	-0.972654	0.225453
O23	O	-0.219821	-1.300148	-0.447119
O24	O	0.280179	-0.800148	0.052881
O25	O	-0.284012	-1.472681	-0.750355
O26	O	0.215988	-0.972681	-0.250355
O27	O	-0.284023	-1.300084	-0.577825
O28	O	0.215977	-0.800084	-0.077825
O29	O	-0.219803	-1.603518	-0.750373
O30	O	0.280197	-1.103518	-0.250373
O31	O	-0.368831	-1.603211	-0.447004
O32	O	0.131169	-1.103211	0.052996
O33	O	-0.368799	-1.472506	-0.577759
O34	O	0.131201	-0.972506	-0.077759
C35	C	-0.251918	-1.261496	-0.512477
C36	C	0.248082	-0.761496	-0.012477
C37	C	-0.251920	-1.143191	-0.512517
C38	C	0.248080	-0.643191	-0.012517
C39	C	-0.286907	-1.073934	-0.583475
C40	C	0.213093	-0.573934	-0.083475
C41	C	-0.239235	-1.003164	-0.609668
C42	C	0.260765	-0.503164	-0.109668
C43	C	-0.299628	-1.003162	-0.486315
C44	C	0.200372	-0.503162	0.013685
C45	C	-0.204223	-1.073979	-0.538761
C46	C	0.295777	-0.573979	-0.038761
C47	C	-0.264648	-1.073983	-0.415362
C48	C	0.235352	-0.573983	0.084638
C49	C	-0.216943	-1.003245	-0.441518
C50	C	0.283057	-0.503245	0.058482
C51	C	-0.387786	-1.537858	-0.512394
C52	C	0.112214	-1.037858	-0.012394
C53	C	-0.445900	-1.537879	-0.512409
C54	C	0.054100	-1.037879	-0.012409
C55	C	-0.806267	-1.606273	-0.444475
C56	C	-0.306267	-1.106273	0.055525
C57	C	-0.860872	-1.606314	-0.444489
C58	C	-0.360872	-1.106314	0.055511
O59	O	-0.889112	-1.664279	-0.386675
O60	O	-0.389112	-1.164279	0.113325
N61	N	-0.888183	-1.538224	-0.512514
N62	N	-0.388183	-1.038224	-0.012514
C63	C	-0.860887	-1.470096	-0.580536
C64	C	-0.360887	-0.970096	-0.080536
O65	O	-0.889131	-1.412185	-0.638398
O66	O	-0.389131	-0.912185	-0.138398
C67	C	-0.806283	-1.470061	-0.580526
C68	C	-0.306283	-0.970061	-0.080526
C69	C	-0.778975	-1.538148	-0.512490
C70	C	-0.278975	-1.038148	-0.012490
C71	C	-0.778959	-1.674355	-0.376444
C72	C	-0.278959	-1.174355	0.123556
C73	C	-0.724358	-1.674312	-0.376429
C74	C	-0.224358	-1.174312	0.123571
C75	C	-0.697066	-1.606187	-0.444444
C76	C	-0.197066	-1.106187	0.055556
C77	C	-0.724374	-1.538105	-0.512474
C78	C	-0.224374	-1.038105	-0.012474
C79	C	-0.778988	-1.401939	-0.648554
C80	C	-0.278988	-0.901939	-0.148554
C81	C	-0.724381	-1.401911	-0.648539
C82	C	-0.224381	-0.901911	-0.148539
C83	C	-0.697073	-1.469997	-0.580502
C84	C	-0.197073	-0.969997	-0.080502
C85	C	-0.642482	-1.469937	-0.580474
C86	C	-0.142482	-0.969937	-0.080474
N87	N	-0.615171	-1.538027	-0.512449
N88	N	-0.115171	-1.038027	-0.012449
C89	C	-0.642463	-1.606152	-0.444434
C90	C	-0.142463	-1.106152	0.055566
C91	C	-0.975557	-1.470176	-0.580553
C92	C	-0.475557	-0.970176	-0.080553
C93	C	-1.030159	-1.470205	-0.580558
C94	C	-0.530159	-0.970205	-0.080558
C95	C	-1.030141	-1.606425	-0.444512
C96	C	-0.530141	-1.106425	0.055488
C97	C	-0.975537	-1.606390	-0.444502
C98	C	-0.475537	-1.106390	0.055498
C99	C	-0.948246	-1.538266	-0.512528
C100	C	-0.448246	-1.038266	-0.012528
C101	C	-0.527798	-1.606056	-0.444407
C102	C	-0.027798	-1.106056	0.055593
C103	C	-0.473192	-1.606004	-0.444394
C104	C	0.026808	-1.106004	0.055606
C105	C	-0.473216	-1.469789	-0.580444
C106	C	0.026784	-0.969789	-0.080444
C107	C	-0.527817	-1.469836	-0.580453
C108	C	-0.027817	-0.969836	-0.080453
C109	C	-0.555106	-1.537979	-0.512431
C110	C	-0.055106	-1.037979	-0.012431
O111	O	-0.614207	-1.412004	-0.638261
O112	O	-0.114207	-0.912004	-0.138261
O113	O	-0.614212	-1.664063	-0.386592
O114	O	-0.114212	-1.164063	0.113408
C115	C	-0.115571	-1.538246	-0.512515
C116	C	0.384429	-1.038246	-0.012515
C117	C	-0.057456	-1.538335	-0.512546
C118	C	0.442544	-1.038335	-0.012546
C119	C	-0.251901	-1.538110	-0.790064
C120	C	0.248099	-1.038110	-0.290064
C121	C	-0.251884	-1.538141	-0.908370
C122	C	0.248116	-1.038141	-0.408370
C123	C	-0.251964	-0.815658	-0.512426
C124	C	0.248036	-0.315658	-0.012426
C125	C	-0.251961	-0.933963	-0.512460
C126	C	0.248039	-0.433963	-0.012460
C127	C	-0.286764	-1.467023	-1.048377
C128	C	0.213236	-0.967023	-0.548377
C129	C	-0.239082	-1.441038	-0.977591
C130	C	0.260918	-0.941038	-0.477591
C131	C	-0.299560	-1.564077	-0.977584
C132	C	0.200440	-1.064077	-0.477584
C133	C	-0.204111	-1.512167	-1.048370
C134	C	0.295889	-1.012167	-0.548370
C135	C	-0.264622	-1.635251	-1.048369
C136	C	0.235378	-1.135251	-0.548369
C137	C	-0.216907	-1.609303	-0.977615
C138	C	0.283093	-1.109303	-0.477615
C139	C	-0.251948	-1.538026	-0.235902
C140	C	0.248052	-1.038026	0.264098
C141	C	-0.251818	-1.538201	-0.117597
C142	C	0.248182	-1.038201	0.382403
H143	H	-0.163883	-1.104955	-0.560992
H144	H	0.336117	-0.604955	-0.060992
H145	H	-0.316250	-1.406810	-1.079447
H146	H	0.183750	-0.906810	-0.579447
Cl147	Cl	-0.690076	-1.316265	-0.734064
Cl148	Cl	-0.190076	-0.816265	-0.234064
H149	H	-0.316438	-1.104975	-0.643553
H150	H	0.183562	-0.604975	-0.143553
H151	H	-0.187349	-1.669471	-0.946742
H152	H	0.312651	-1.169471	-0.446742
Cl153	Cl	-0.562148	-1.384219	-0.665964
Cl154	Cl	-0.062148	-0.884219	-0.165964
Cl155	Cl	-0.438896	-1.384156	-0.665949
Cl156	Cl	0.061104	-0.884156	-0.165949
H157	H	-0.801174	-1.729836	-0.321058
H158	H	-0.301174	-1.229836	0.178942
Cl159	Cl	-0.281326	-1.761969	-1.096412
Cl160	Cl	0.218674	-1.261969	-0.596412
H161	H	-0.339908	-1.585990	-0.946492
H162	H	0.160092	-1.085990	-0.446492
H163	H	-0.275413	-1.105115	-0.333248
H164	H	0.224587	-0.605115	0.166752
H165	H	-0.228277	-1.358939	-0.946501
H166	H	0.271723	-0.858939	-0.446501
H167	H	-0.228484	-0.972056	-0.691805
H168	H	0.271516	-0.472056	-0.191805
Cl169	Cl	-0.171239	-0.955620	-0.348834
Cl170	Cl	0.328761	-0.455620	0.151166
Cl171	Cl	-0.361891	-0.955134	-0.452132
Cl172	Cl	0.138109	-0.455134	0.047868
Cl173	Cl	-1.064483	-1.384594	-0.666081
Cl174	Cl	-0.564483	-0.884594	-0.166081
H175	H	-0.550011	-1.661546	-0.389019
H176	H	-0.050011	-1.161546	0.110981
Cl177	Cl	-0.438865	-1.691606	-0.358856
Cl178	Cl	0.061135	-1.191606	0.141144
H179	H	-0.801213	-1.346490	-0.703951
H180	H	-0.301213	-0.846490	-0.203951
Cl181	Cl	-0.690036	-1.759928	-0.290909
Cl182	Cl	-0.190036	-1.259928	0.209091
H183	H	-0.953306	-1.661832	-0.389101
H184	H	-0.453306	-1.161832	0.110899
Cl185	Cl	-1.064461	-1.692067	-0.359004
Cl186	Cl	-0.564461	-1.192067	0.140996
H187	H	-0.163752	-1.490162	-1.079333
H188	H	0.336248	-0.990162	-0.579333
Cl189	Cl	-0.941254	-1.384517	-0.666071
Cl190	Cl	-0.441254	-0.884517	-0.166071
