data_functionalizedCrystal
_audit_creation_method	'MofGen! by Chris Wilmer'
_symmetry_space_group_name_H-M	'P1'
_symmetry_Int_Tables_number	1
_symmetry_cell_setting	triclinic
loop_
_symmetry_equiv_pos_as_xyz
  x,y,z
_cell_length_a	10.723024
_cell_length_b	10.489741
_cell_length_c	9.198806
_cell_angle_alpha	89.997101
_cell_angle_beta	89.996352
_cell_angle_gamma	84.503522
loop_
_atom_site_label
_atom_site_type_symbol
_atom_site_fract_x
_atom_site_fract_y
_atom_site_fract_z
O1	O	1.657297	0.178906	-0.120882
O2	O	1.294155	0.196031	-0.120887
O3	O	1.483989	0.001865	-0.120876
O4	O	1.467463	0.373072	-0.120893
O5	O	1.483974	0.001865	0.120909
O6	O	1.294140	0.196030	0.120898
O7	O	1.657282	0.178906	0.120903
Cu8	Cu	1.475710	0.187468	0.142977
Cu9	Cu	1.475728	0.187469	-0.142962
O10	O	1.467448	0.373071	0.120892
C11	C	1.247647	0.194785	0.000005
C12	C	1.109091	0.191056	0.000003
C13	C	1.482734	-0.045666	0.000016
C14	C	1.478999	-0.187293	0.000013
C15	C	1.034175	0.299701	-0.000003
C16	C	0.890969	0.295850	-0.000005
C17	C	1.358213	-0.255356	0.000001
C18	C	1.415264	-0.347515	0.119214
C19	C	1.415308	-0.347489	-0.119167
C20	C	1.536100	-0.277587	0.119325
C21	C	1.536126	-0.277551	-0.119163
C22	C	1.593265	-0.369683	0.000079
C23	C	1.703790	0.180152	0.000008
C24	C	1.842347	0.183881	-0.000000
C25	C	1.468704	0.420602	-0.000003
C26	C	1.472438	0.562229	-0.000010
N27	N	1.475706	0.187467	0.344091
N28	N	1.475741	0.187460	-0.344075
C29	C	1.555412	0.105583	0.416293
C30	C	1.555431	0.105578	0.583705
H31	H	1.076055	0.395567	0.000001
O32	O	1.636960	0.021888	0.657542
C33	C	1.803277	-0.149119	0.641782
C34	C	1.711033	-0.054383	0.557978
H35	H	1.863171	-0.210827	0.561320
H36	H	1.866317	-0.093672	0.712988
H37	H	1.748563	-0.213055	0.713095
H38	H	1.765645	0.009576	0.486585
H39	H	1.647993	-0.109910	0.486863
H40	H	1.407503	0.257572	0.593844
H41	H	0.826593	0.388858	-0.000016
H42	H	1.587156	-0.246787	0.220223
H43	H	1.692663	-0.419171	0.000147
H44	H	0.906715	0.090867	-0.000004
H45	H	1.587197	-0.246539	-0.219954
H46	H	1.067210	0.095190	-0.000030
O47	O	1.239720	-0.196095	0.000391
C48	C	1.042201	-0.164389	0.126475
C49	C	1.176363	-0.231561	0.126223
H50	H	0.990929	-0.193059	0.228183
H51	H	1.046080	-0.056163	0.125531
H52	H	0.990240	-0.194289	0.025822
H53	H	1.228402	-0.201766	0.226859
H54	H	1.172394	-0.339775	0.127091
O55	O	1.394361	0.271275	0.418031
C56	C	1.323897	0.492498	0.464964
C57	C	1.416076	0.397725	0.381118
H58	H	1.341438	0.594754	0.435174
H59	H	1.223675	0.475363	0.435114
H60	H	1.338393	0.477527	0.586772
H61	H	1.401693	0.412639	0.259291
H62	H	1.516265	0.414883	0.411088
O63	O	1.354162	-0.384236	-0.239364
C64	C	1.161101	-0.367340	-0.375117
C65	C	1.230218	-0.325606	-0.238961
H66	H	1.060873	-0.319978	-0.374820
H67	H	1.211540	-0.337153	-0.476759
H68	H	1.159708	-0.475872	-0.374519
H69	H	1.231631	-0.217080	-0.239417
H70	H	1.179756	-0.355888	-0.137380
H71	H	1.364150	-0.378494	0.219999
H72	H	1.623633	0.035476	0.354171
