data_functionalizedCrystal
_audit_creation_method	'MofGen! by Chris Wilmer'
_symmetry_space_group_name_H-M	'P1'
_symmetry_Int_Tables_number	1
_symmetry_cell_setting	triclinic
loop_
_symmetry_equiv_pos_as_xyz
  x,y,z
_cell_length_a	16.625547
_cell_length_b	16.625545
_cell_length_c	11.169409
_cell_angle_alpha	90.036260
_cell_angle_beta	89.972593
_cell_angle_gamma	89.976026
loop_
_atom_site_label
_atom_site_type_symbol
_atom_site_fract_x
_atom_site_fract_y
_atom_site_fract_z
Zn1	Zn	1.232692	0.320938	-0.678753
Zn2	Zn	1.732692	0.820938	-0.178753
Zn3	Zn	1.232586	0.455800	-0.478056
Zn4	Zn	1.732586	0.955800	0.021944
Zn5	Zn	1.097848	0.320985	-0.478061
Zn6	Zn	1.597848	0.820985	0.021939
Zn7	Zn	1.097821	0.455732	-0.678674
Zn8	Zn	1.597821	0.955732	-0.178674
O9	O	1.165237	0.388363	-0.578386
O10	O	1.665237	0.888363	-0.078386
O11	O	1.345511	0.338836	-0.652161
O12	O	1.845511	0.838836	-0.152161
O13	O	1.214679	0.437964	-0.310107
O14	O	1.714679	0.937964	0.189893
O15	O	1.115791	0.208146	-0.504718
O16	O	1.615791	0.708146	-0.004718
O17	O	1.345432	0.437919	-0.504710
O18	O	1.845432	0.937919	-0.004710
O19	O	1.214861	0.208111	-0.652165
O20	O	1.714861	0.708111	-0.152165
O21	O	1.115688	0.338916	-0.310110
O22	O	1.615688	0.838916	0.189890
O23	O	0.985012	0.338850	-0.504642
O24	O	1.485012	0.838850	-0.004642
O25	O	1.115745	0.437803	-0.846635
O26	O	1.615745	0.937803	-0.346635
O27	O	0.984992	0.437849	-0.652032
O28	O	1.484992	0.937849	-0.152032
O29	O	1.214835	0.338770	-0.846692
O30	O	1.714835	0.838770	-0.346692
O31	O	1.214653	0.568623	-0.504634
O32	O	1.714653	1.068623	-0.004634
O33	O	1.115642	0.568573	-0.652027
O34	O	1.615642	1.068573	-0.152027
C35	C	0.955746	0.388348	-0.578329
C36	C	1.455746	0.888348	-0.078329
C37	C	0.866125	0.388360	-0.578333
C38	C	1.366125	0.888360	-0.078333
C39	C	0.793342	0.388362	-0.578348
C40	C	1.293342	0.888362	-0.078348
C41	C	0.702034	0.388366	-0.578378
C42	C	1.202034	0.888366	-0.078378
C43	C	0.629257	0.388374	-0.578409
C44	C	1.129257	0.888374	-0.078409
C45	C	0.537943	0.388379	-0.578438
C46	C	1.037943	0.888379	-0.078438
C47	C	1.165155	0.597854	-0.578347
C48	C	1.665155	1.097854	-0.078347
C49	C	1.165193	0.687475	-0.578371
C50	C	1.665193	1.187475	-0.078371
C51	C	1.165325	1.015651	-0.578515
C52	C	1.665325	1.515651	-0.078515
C53	C	1.165286	0.924342	-0.578478
C54	C	1.665286	1.424342	-0.078478
C55	C	1.165259	0.851566	-0.578442
C56	C	1.665259	1.351566	-0.078442
C57	C	1.165221	0.760252	-0.578407
C58	C	1.665221	1.260252	-0.078407
C59	C	1.375546	0.388380	-0.578444
C60	C	1.875546	0.888380	-0.078444
C61	C	1.465167	0.388387	-0.578468
C62	C	1.965167	0.888387	-0.078468
C63	C	1.165299	0.388274	-0.891429
C64	C	1.665299	0.888274	-0.391429
C65	C	1.165325	0.388236	-1.024829
C66	C	1.665325	0.888236	-0.524829
C67	C	1.165334	1.178054	-0.578465
C68	C	1.665334	1.678054	-0.078465
C69	C	1.165358	1.088433	-0.578535
C70	C	1.665358	1.588433	-0.078535
C71	C	1.165221	0.388394	-0.266561
C72	C	1.665221	0.888394	0.233439
C73	C	1.165351	0.388205	-0.133162
C74	C	1.665351	0.888205	0.366838
