data_functionalizedCrystal
_audit_creation_method	'MofGen! by Chris Wilmer'
_symmetry_space_group_name_H-M	'P1'
_symmetry_Int_Tables_number	1
_symmetry_cell_setting	triclinic
loop_
_symmetry_equiv_pos_as_xyz
  x,y,z
_cell_length_a	10.654534
_cell_length_b	9.565339
_cell_length_c	10.654550
_cell_angle_alpha	90.001711
_cell_angle_beta	95.518333
_cell_angle_gamma	90.005794
loop_
_atom_site_label
_atom_site_type_symbol
_atom_site_fract_x
_atom_site_fract_y
_atom_site_fract_z
O1	O	-1.667855	-0.116286	0.176292
O2	O	-1.302374	-0.116283	0.193119
O3	O	-1.493518	-0.116276	0.001966
O4	O	-1.476711	-0.116293	0.367445
O5	O	-1.493497	0.116244	0.001983
O6	O	-1.302353	0.116237	0.193136
O7	O	-1.667834	0.116234	0.176309
Zn8	Zn	-1.485090	0.153153	0.184725
Zn9	Zn	-1.485118	-0.153202	0.184703
O10	O	-1.476691	0.116227	0.367462
C11	C	-1.255565	-0.000022	0.191896
C12	C	-1.116121	-0.000021	0.188212
C13	C	-1.050605	0.126728	0.186488
C14	C	-0.919585	0.126731	0.183005
C15	C	-0.919608	-0.126775	0.182978
C16	C	-1.050627	-0.126777	0.186451
N17	N	-1.485081	0.362233	0.184740
C18	C	-1.396654	0.453432	0.273115
C19	C	-1.510356	0.546609	0.298469
C20	C	-1.371421	0.546611	0.159403
C21	C	-1.598840	0.453357	0.210151
C22	C	-1.459831	0.453352	0.071036
C23	C	-1.573614	0.546486	0.096342
C24	C	-0.714642	-0.000023	0.177542
C25	C	-0.854082	-0.000016	0.181257
C26	C	-1.492273	-0.000016	-0.044824
C27	C	-1.488581	-0.000019	-0.184267
N28	N	-1.485113	0.637719	0.184701
C29	C	-1.601123	-0.000020	-0.263759
C30	C	-1.597647	-0.000037	-0.394779
C31	C	-1.369076	-0.000045	-0.366803
C32	C	-1.372554	-0.000038	-0.235785
C33	C	-1.477935	-0.000036	0.414252
C34	C	-1.481627	-0.000043	0.553695
H35	H	-0.866266	-0.229975	0.181545
H36	H	-1.531736	0.587571	0.394609
O37	O	-1.713645	0.404943	0.235802
C38	C	-1.793958	0.518869	0.253745
H39	H	-1.759153	0.615146	0.204394
H40	H	-1.793812	0.541028	0.358895
C41	C	-1.971648	0.365076	0.258586
C42	C	-1.928906	0.483323	0.197962
H43	H	-2.054892	0.343149	0.224182
H44	H	-1.917539	0.288321	0.246502
H45	H	-1.971515	0.383558	0.346207
H46	H	-1.929024	0.464834	0.110346
H47	H	-1.983018	0.560074	0.210029
O48	O	-1.263105	0.000026	-0.158737
C49	C	-1.159951	-0.000016	-0.232300
H50	H	-1.190963	0.044004	-0.329796
H51	H	-1.124456	-0.111570	-0.241933
C52	C	-1.015236	0.037098	-0.048197
C53	C	-1.053323	0.091176	-0.167940
H54	H	-0.949460	0.093344	-0.008495
H55	H	-1.084732	0.037121	0.001365
H56	H	-0.985665	-0.055862	-0.056241
H57	H	-1.082908	0.184128	-0.159893
H58	H	-0.983830	0.091171	-0.217499
H59	H	-1.321946	0.412575	0.347917
O60	O	-1.706886	0.000149	-0.472127
C61	C	-1.711714	0.120582	-0.548736
H62	H	-1.611963	0.160725	-0.556222
H63	H	-1.769441	0.204915	-0.505150
C64	C	-1.896270	0.034682	-0.671990
C65	C	-1.773753	0.083980	-0.681193
H66	H	-1.934543	0.012109	-0.753694
H67	H	-1.893021	-0.046453	-0.620374
H68	H	-1.944360	0.104969	-0.635663
H69	H	-1.725661	0.013688	-0.717504
H70	H	-1.776995	0.165103	-0.732818
O71	O	-1.256451	-0.000238	-0.417001
C72	C	-1.247600	-0.120681	-0.491928
H73	H	-1.346308	-0.160830	-0.523699
H74	H	-1.192549	-0.205006	-0.434535
C75	C	-1.057722	-0.034790	-0.569364
C76	C	-1.178958	-0.084095	-0.608395
H77	H	-1.015375	-0.012226	-0.641204
H78	H	-1.063681	0.046352	-0.518881
H79	H	-1.011863	-0.105069	-0.521535
H80	H	-1.224819	-0.013810	-0.656209
H81	H	-1.173004	-0.165225	-0.658889
H82	H	-1.103972	-0.229997	0.187852
H83	H	-1.103926	0.229941	0.187921
H84	H	-0.866247	0.229943	0.181601
H85	H	-1.648490	0.587087	0.021586
H86	H	-1.275288	0.587577	0.137990
O87	O	-1.434065	0.404497	-0.043573
C88	C	-1.314082	0.451957	-0.069912
H89	H	-1.255277	0.478169	0.022163
H90	H	-1.325032	0.549431	-0.131562
C91	C	-1.319890	0.304528	-0.252873
C92	C	-1.247661	0.336710	-0.139783
H93	H	-1.278920	0.233442	-0.295978
H94	H	-1.400727	0.272556	-0.235132
H95	H	-1.329010	0.385765	-0.304233
H96	H	-1.238556	0.255477	-0.088419
H97	H	-1.166821	0.368665	-0.157518
H98	H	-1.695600	-0.000007	-0.221817
