data_functionalizedCrystal
_audit_creation_method	'MofGen! by Chris Wilmer'
_symmetry_space_group_name_H-M	'P1'
_symmetry_Int_Tables_number	1
_symmetry_cell_setting	triclinic
loop_
_symmetry_equiv_pos_as_xyz
  x,y,z
_cell_length_a	16.625539
_cell_length_b	16.625548
_cell_length_c	16.625546
_cell_angle_alpha	90.023536
_cell_angle_beta	90.030397
_cell_angle_gamma	90.020568
loop_
_atom_site_label
_atom_site_type_symbol
_atom_site_fract_x
_atom_site_fract_y
_atom_site_fract_z
Zn1	Zn	-0.455898	-1.232680	0.320977
Zn2	Zn	0.044102	-0.732680	0.820977
Zn3	Zn	-0.321060	-1.232584	0.455820
Zn4	Zn	0.178940	-0.732584	0.955820
Zn5	Zn	-0.321078	-1.097842	0.321008
Zn6	Zn	0.178922	-0.597842	0.821008
Zn7	Zn	-0.455850	-1.097813	0.455774
Zn8	Zn	0.044150	-0.597813	0.955774
O9	O	-0.388471	-1.165230	0.388395
O10	O	0.111529	-0.665230	0.888395
O11	O	-0.438024	-1.345500	0.338871
O12	O	0.061976	-0.845500	0.838871
O13	O	-0.208230	-1.214682	0.437969
O14	O	0.291770	-0.714682	0.937969
O15	O	-0.338990	-1.115782	0.208171
O16	O	0.161010	-0.615782	0.708171
O17	O	-0.338959	-1.345429	0.437940
O18	O	0.161041	-0.845429	0.937940
O19	O	-0.438041	-1.214847	0.208149
O20	O	0.061959	-0.714847	0.708149
O21	O	-0.208243	-1.115688	0.338923
O22	O	0.291757	-0.615688	0.838923
O23	O	-0.338944	-0.985006	0.338878
O24	O	0.161056	-0.485006	0.838878
O25	O	-0.568689	-1.115731	0.437861
O26	O	-0.068689	-0.615731	0.937861
O27	O	-0.437960	-0.984984	0.437890
O28	O	0.062040	-0.484984	0.937890
O29	O	-0.568724	-1.214818	0.338826
O30	O	-0.068724	-0.714818	0.838826
O31	O	-0.338912	-1.214653	0.568647
O32	O	0.161088	-0.714653	1.068647
O33	O	-0.437942	-1.115637	0.568613
O34	O	0.062058	-0.615637	1.068613
C35	C	-0.388449	-0.955739	0.388383
C36	C	0.111551	-0.455739	0.888383
C37	C	-0.388458	-0.866118	0.388398
C38	C	0.111542	-0.366118	0.888398
C39	C	-0.388438	-1.165153	0.597886
C40	C	0.111562	-0.665153	1.097886
C41	C	-0.388450	-1.165195	0.687507
C42	C	0.111550	-0.665195	1.187507
C43	C	-0.598780	-1.165282	0.388335
C44	C	-0.098780	-0.665282	0.888335
C45	C	-0.688402	-1.165305	0.388309
C46	C	-0.188402	-0.665305	0.888309
C47	C	-1.016577	-1.165342	0.388219
C48	C	-0.516577	-0.665342	0.888219
C49	C	-0.925269	-1.165329	0.388247
C50	C	-0.425269	-0.665329	0.888247
C51	C	-0.852492	-1.165324	0.388265
C52	C	-0.352492	-0.665324	0.888265
C53	C	-0.761178	-1.165310	0.388291
C54	C	-0.261178	-0.665310	0.888291
C55	C	-0.178981	-1.165224	0.388397
C56	C	0.321019	-0.665224	0.888397
C57	C	-0.089360	-1.165358	0.388195
C58	C	0.410640	-0.665358	0.888195
C59	C	-0.388494	-1.375539	0.388407
C60	C	0.111506	-0.875539	0.888407
C61	C	-0.388504	-1.465160	0.388412
C62	C	0.111496	-0.965160	0.888412
C63	C	-0.388493	-0.537942	0.388403
C64	C	0.111507	-0.037942	0.888403
C65	C	-0.388481	-0.629251	0.388399
C66	C	0.111519	-0.129251	0.888399
C67	C	-0.388475	-0.702027	0.388401
C68	C	0.111525	-0.202027	0.888401
C69	C	-0.388464	-0.793341	0.388396
C70	C	0.111536	-0.293341	0.888396
C71	C	-0.388523	-1.165328	0.178086
C72	C	0.111477	-0.665328	0.678086
C73	C	-0.388545	-1.165370	0.088465
C74	C	0.111455	-0.665370	0.588465
C75	C	-0.388534	-1.165335	1.015682
C76	C	0.111466	-0.665335	1.515682
C77	C	-0.388513	-1.165294	0.924374
C78	C	0.111487	-0.665294	1.424374
C79	C	-0.388492	-1.165264	0.851598
C80	C	0.111508	-0.665264	1.351598
C81	C	-0.388471	-1.165224	0.760283
C82	C	0.111529	-0.665224	1.260283
