data_functionalizedCrystal
_audit_creation_method	'MofGen! by Chris Wilmer'
_symmetry_space_group_name_H-M	'P1'
_symmetry_Int_Tables_number	1
_symmetry_cell_setting	triclinic
loop_
_symmetry_equiv_pos_as_xyz
  x,y,z
_cell_length_a	17.000383
_cell_length_b	14.519709
_cell_length_c	13.596369
_cell_angle_alpha	90.006934
_cell_angle_beta	89.991382
_cell_angle_gamma	100.359776
loop_
_atom_site_label
_atom_site_type_symbol
_atom_site_fract_x
_atom_site_fract_y
_atom_site_fract_z
O1	O	1.056148	-0.033240	-0.081859
O2	O	1.389482	0.300093	0.251474
O3	O	1.722815	0.633426	0.584807
O4	O	0.824464	-0.066705	-0.081847
O5	O	1.157797	0.266628	0.251486
O6	O	1.491130	0.599962	0.584819
O7	O	0.946449	0.084775	-0.081845
O8	O	1.279782	0.418109	0.251489
O9	O	1.613115	0.751442	0.584822
O10	O	0.934163	-0.184721	-0.081862
O11	O	1.267496	0.148612	0.251471
O12	O	1.600830	0.481946	0.584805
O13	O	0.946437	0.084782	0.081738
O14	O	1.279770	0.418115	0.415071
O15	O	1.613103	0.751449	0.748405
O16	O	0.824451	-0.066699	0.081736
O17	O	1.157785	0.266635	0.415069
O18	O	1.491118	0.599968	0.748402
O19	O	1.056136	-0.033234	0.081723
O20	O	1.389469	0.300099	0.415057
O21	O	1.722803	0.633433	0.748390
Zn22	Zn	0.940292	-0.049965	0.107702
Zn23	Zn	1.273625	0.283368	0.441035
Zn24	Zn	1.606959	0.616701	0.774369
Zn25	Zn	0.940308	-0.049974	-0.107826
Zn26	Zn	1.273641	0.283360	0.225508
Zn27	Zn	1.606975	0.616693	0.558841
O28	O	0.934151	-0.184715	0.081721
O29	O	1.267484	0.148619	0.415054
O30	O	1.600818	0.481952	0.748388
C31	C	0.794807	-0.068499	-0.000054
C32	C	1.128140	0.264834	0.333279
C33	C	1.461473	0.598168	0.666613
C34	C	0.706456	-0.073843	-0.000049
C35	C	1.039789	0.259490	0.333284
C36	C	1.373122	0.592823	0.666618
C37	C	0.206288	-0.108353	-0.000088
C38	C	0.539621	0.224981	0.333245
C39	C	0.872955	0.558314	0.666579
C40	C	0.289304	-0.103324	-0.000087
C41	C	0.622637	0.230010	0.333246
C42	C	0.955970	0.563343	0.666580
C43	C	0.340174	-0.016037	-0.000074
C44	C	0.673507	0.317296	0.333259
C45	C	1.006841	0.650629	0.666593
C46	C	0.308025	0.066226	-0.000072
C47	C	0.641359	0.399559	0.333261
C48	C	0.974692	0.732892	0.666595
C49	C	0.225011	0.061196	-0.000080
C50	C	0.558344	0.394529	0.333253
C51	C	0.891677	0.727863	0.666586
C52	C	0.591292	0.003390	-0.000055
C53	C	0.924626	0.336723	0.333278
C54	C	1.257959	0.670057	0.666611
C55	C	0.674312	0.008413	-0.000044
C56	C	1.007645	0.341747	0.333289
C57	C	1.340978	0.675080	0.666622
C58	C	0.655585	-0.161137	-0.000061
C59	C	0.988918	0.172197	0.333272
C60	C	1.322251	0.505530	0.666606
C61	C	0.572569	-0.166159	-0.000063
C62	C	0.905903	0.167175	0.333270
C63	C	1.239236	0.500508	0.666603
C64	C	0.540428	-0.083896	-0.000067
C65	C	0.873761	0.249438	0.333267
C66	C	1.207094	0.582771	0.666600
C67	C	0.425030	-0.010895	-0.000070
C68	C	0.758363	0.322438	0.333264
C69	C	1.091697	0.655772	0.666597
C70	C	0.455573	-0.089039	-0.000078
C71	C	0.788907	0.244294	0.333256
C72	C	1.122240	0.577628	0.666589
C73	C	0.945870	0.119091	-0.000053
C74	C	1.279203	0.452424	0.333280
C75	C	1.612537	0.785758	0.666614
C76	C	0.944154	0.221330	-0.000052
C77	C	1.277488	0.554663	0.333281
C78	C	1.610821	0.887997	0.666614
C79	C	1.085793	-0.031440	-0.000072
C80	C	1.419127	0.301893	0.333262
C81	C	1.752460	0.635227	0.666595
C82	C	1.174144	-0.026096	-0.000083
C83	C	1.507477	0.307238	0.333250
C84	C	1.840811	0.640571	0.666583
C85	C	0.934730	-0.219030	-0.000073
C86	C	1.268063	0.114303	0.333261
C87	C	1.601396	0.447637	0.666594
C88	C	0.936445	-0.321269	-0.000080
C89	C	1.269779	0.012064	0.333253
C90	C	1.603112	0.345398	0.666587
N91	N	0.940287	-0.049958	0.254794
N92	N	1.273620	0.283375	0.588127
N93	N	1.606953	0.616708	0.921460
C94	C	0.937838	0.595701	-0.000078
C95	C	1.271171	0.929035	0.333256
C96	C	1.604505	1.262368	0.666589
C97	C	0.939592	0.491539	-0.000070
C98	C	1.272925	0.824872	0.333263
C99	C	1.606259	1.158206	0.666596
C100	C	0.940996	0.408519	-0.000064
C101	C	1.274329	0.741852	0.333269
C102	C	1.607663	1.075186	0.666602
C103	C	0.942750	0.304350	-0.000059
C104	C	1.276084	0.637683	0.333275
C105	C	1.609417	0.971017	0.666608
N106	N	0.940319	-0.049973	-0.254917
N107	N	1.273653	0.283360	0.078416
N108	N	1.606986	0.616694	0.411749
C109	C	0.940307	-0.049975	0.656085
C110	C	1.273640	0.283358	0.989418
C111	C	1.606973	0.616692	1.322751
C112	C	0.940299	-0.049974	0.544433
C113	C	1.273632	0.283360	0.877767
C114	C	1.606966	0.616693	1.211100
C115	C	0.940297	-0.049967	0.455443
C116	C	1.273630	0.283366	0.788776
C117	C	1.606964	0.616699	1.122109
C118	C	0.940288	-0.049965	0.343784
C119	C	1.273622	0.283369	0.677118
C120	C	1.606955	0.616702	1.010451
H121	H	0.349451	0.137296	-0.000067
H122	H	0.682784	0.470630	0.333266
H123	H	1.016117	0.803963	0.666599
C124	C	0.262455	-0.271419	-0.000084
C125	C	0.595788	0.061914	0.333249
C126	C	0.929121	0.395248	0.666582
C127	C	0.324636	-0.193744	-0.000083
C128	C	0.657969	0.139590	0.333250
C129	C	0.991302	0.472923	0.666583
H130	H	0.284268	-0.327242	-0.000076
H131	H	0.617602	0.006092	0.333257
H132	H	0.950935	0.339425	0.666590
H133	H	0.230476	-0.269858	-0.057128
H134	H	0.563810	0.063475	0.276205
H135	H	0.897143	0.396808	0.609538
H136	H	0.230456	-0.269842	0.056962
H137	H	0.563789	0.063492	0.390295
H138	H	0.897122	0.396825	0.723629
H139	H	0.356631	-0.195317	-0.057134
H140	H	0.689965	0.138016	0.276199
H141	H	1.023298	0.471349	0.609533
H142	H	0.356627	-0.195305	0.056967
H143	H	0.689961	0.138028	0.390300
H144	H	1.023294	0.471362	0.723633
H145	H	0.715730	0.079496	-0.000039
H146	H	1.049063	0.412830	0.333295
H147	H	1.382397	0.746163	0.666628
H148	H	0.531155	-0.237237	-0.000077
H149	H	0.864489	0.096097	0.333257
H150	H	1.197822	0.429430	0.666590
H151	H	0.681764	-0.228111	-0.000060
H152	H	1.015097	0.105223	0.333274
H153	H	1.348430	0.438556	0.666607
H154	H	0.198841	0.128179	-0.000078
H155	H	0.532175	0.461512	0.333255
H156	H	0.865508	0.794845	0.666589
C157	C	0.529273	0.093113	-0.084131
C158	C	0.862606	0.426446	0.249203
C159	C	1.195940	0.759779	0.582536
C160	C	0.480954	0.085047	-0.000046
C161	C	0.814287	0.418381	0.333288
C162	C	1.147621	0.751714	0.666621
H163	H	0.563803	0.152341	-0.084112
H164	H	0.897136	0.485674	0.249221
H165	H	1.230470	0.819007	0.582555
H166	H	0.496509	0.087643	-0.141168
H167	H	0.829842	0.420977	0.192165
H168	H	1.163176	0.754310	0.525499
H169	H	0.560287	0.044830	-0.084127
H170	H	0.893620	0.378163	0.249206
H171	H	1.226953	0.711496	0.582539
H172	H	0.449936	0.133326	-0.000053
H173	H	0.783269	0.466660	0.333281
H174	H	1.116602	0.799993	0.666614
H175	H	0.513722	0.090526	0.057006
H176	H	0.847055	0.423859	0.390340
H177	H	1.180388	0.757193	0.723673
C178	C	0.102083	-0.212364	-0.084198
C179	C	0.435416	0.120969	0.249135
C180	C	0.768749	0.454303	0.582468
C181	C	0.150372	-0.204300	-0.000103
C182	C	0.483705	0.129033	0.333230
C183	C	0.817039	0.462366	0.666564
H184	H	0.067561	-0.271598	-0.084205
H185	H	0.400895	0.061735	0.249128
H186	H	0.734228	0.395069	0.582462
H187	H	0.134867	-0.206879	-0.141229
H188	H	0.468201	0.126454	0.192105
H189	H	0.801534	0.459788	0.525438
H190	H	0.071060	-0.164090	-0.084183
H191	H	0.404393	0.169243	0.249150
H192	H	0.737727	0.502577	0.582484
H193	H	0.181399	-0.252570	-0.000122
H194	H	0.514733	0.080763	0.333211
H195	H	0.848066	0.414096	0.666545
H196	H	0.117583	-0.209795	0.056942
H197	H	0.450917	0.123539	0.390275
H198	H	0.784250	0.456872	0.723609
H199	H	0.565133	0.070374	-0.000055
H200	H	0.898466	0.403708	0.333278
H201	H	1.231800	0.737041	0.666611
H202	H	0.414151	-0.160107	-0.000093
H203	H	0.747484	0.173226	0.333240
H204	H	1.080818	0.506560	0.666574
