data_functionalizedCrystal
_audit_creation_method	'MofGen! by Chris Wilmer'
_symmetry_space_group_name_H-M	'P1'
_symmetry_Int_Tables_number	1
_symmetry_cell_setting	triclinic
loop_
_symmetry_equiv_pos_as_xyz
  x,y,z
_cell_length_a	10.723024
_cell_length_b	10.654541
_cell_length_c	9.798715
_cell_angle_alpha	89.997081
_cell_angle_beta	89.996609
_cell_angle_gamma	84.475899
loop_
_atom_site_label
_atom_site_type_symbol
_atom_site_fract_x
_atom_site_fract_y
_atom_site_fract_z
O1	O	1.657212	0.176147	-0.113482
O2	O	1.294062	0.193008	-0.113486
O3	O	1.483988	0.001837	-0.113475
O4	O	1.467286	0.367318	-0.113492
O5	O	1.483974	0.001836	0.113507
O6	O	1.294048	0.193007	0.113496
O7	O	1.657198	0.176147	0.113501
Zn8	Zn	1.475620	0.184577	0.149537
Zn9	Zn	1.475639	0.184578	-0.149522
O10	O	1.467272	0.367318	0.113490
C11	C	1.247555	0.191781	0.000004
C12	C	1.109000	0.188109	0.000003
C13	C	1.482755	-0.044961	0.000015
C14	C	1.479088	-0.184404	0.000012
C15	C	1.034033	0.295079	-0.000003
C16	C	0.890829	0.291287	-0.000005
C17	C	1.706196	-0.212409	0.000033
C18	C	1.818022	-0.291921	0.000045
C19	C	1.814569	-0.422938	0.000041
C20	C	1.699277	-0.474446	0.000020
C21	C	1.587451	-0.394935	0.000007
C22	C	1.590917	-0.263916	0.000016
C23	C	1.360346	-0.366930	-0.000023
C24	C	1.363796	-0.235912	-0.000009
C25	C	1.245054	-0.418438	-0.000044
C26	C	1.133225	-0.338927	-0.000047
C27	C	1.136683	-0.207902	-0.000041
C28	C	1.251970	-0.156401	-0.000022
C29	C	1.703705	0.177374	0.000007
C30	C	1.842259	0.181045	-0.000000
C31	C	1.468504	0.414116	-0.000003
C32	C	1.472172	0.553559	-0.000010
N33	N	1.475617	0.184576	0.353636
N34	N	1.475653	0.184569	-0.353622
C35	C	1.555361	0.103954	0.421418
C36	C	1.555381	0.103950	0.578580
H37	H	1.075868	0.389466	0.000000
H38	H	1.623616	0.034929	0.363099
H39	H	1.067165	0.093722	-0.000028
Cl40	Cl	1.694940	-0.639155	-0.000078
Cl41	Cl	0.791376	0.432679	-0.000023
H42	H	0.906672	0.089466	-0.000004
H43	H	1.709019	-0.105730	0.000055
H44	H	1.242250	-0.525120	-0.000056
Cl45	Cl	1.962953	-0.227162	0.000064
H46	H	1.407381	0.253600	0.588098
H47	H	1.905628	-0.487677	0.000041
H48	H	1.407354	0.253591	0.411957
Cl49	Cl	0.996092	-0.107955	-0.000068
Cl50	Cl	0.988303	-0.403686	-0.000090
H51	H	1.623659	0.034931	0.636869
H52	H	1.254797	-0.049722	-0.000008
