data_functionalizedCrystal
_audit_creation_method	'MofGen! by Chris Wilmer'
_symmetry_space_group_name_H-M	'P1'
_symmetry_Int_Tables_number	1
_symmetry_cell_setting	triclinic
loop_
_symmetry_equiv_pos_as_xyz
  x,y,z
_cell_length_a	14.519709
_cell_length_b	17.699083
_cell_length_c	16.176319
_cell_angle_alpha	90.007696
_cell_angle_beta	90.001796
_cell_angle_gamma	83.481580
loop_
_atom_site_label
_atom_site_type_symbol
_atom_site_fract_x
_atom_site_fract_y
_atom_site_fract_z
O1	O	-1.223449	-0.099215	-0.068641
O2	O	-0.954923	-0.110899	-0.068666
O3	O	-1.096773	0.005110	-0.068645
O4	O	-1.081600	-0.215225	-0.068661
O5	O	-1.096753	0.005118	0.068848
O6	O	-0.954903	-0.110892	0.068827
O7	O	-1.223430	-0.099208	0.068853
Cu8	Cu	-1.089165	-0.105049	0.081394
Cu9	Cu	-1.089188	-0.105058	-0.081208
O10	O	-1.081580	-0.215217	0.068832
C11	C	-0.920556	-0.110351	0.000077
C12	C	-0.818181	-0.108719	0.000068
C13	C	-1.096219	0.033312	0.000101
C14	C	-1.094588	0.117335	0.000101
C15	C	-1.257797	-0.099756	0.000107
C16	C	-1.360171	-0.101388	0.000111
C17	C	-0.443311	-0.102712	0.000106
C18	C	-0.547612	-0.104380	0.000095
C19	C	-0.630743	-0.105716	0.000086
C20	C	-0.735050	-0.107384	0.000077
C21	C	-1.082134	-0.243420	0.000083
C22	C	-1.083765	-0.327442	0.000078
N23	N	-1.089155	-0.105043	0.195759
C24	C	-1.177851	0.165718	0.000111
C25	C	-1.176313	0.244665	0.000103
C26	C	-1.091511	0.275229	0.000093
C27	C	-1.008242	0.226840	0.000081
C28	C	-1.009781	0.147894	0.000082
C29	C	-1.002033	0.545221	0.000074
C30	C	-1.000501	0.624173	0.000075
C31	C	-1.168566	0.641992	0.000094
C32	C	-1.170105	0.563046	0.000096
C33	C	-1.086836	0.514664	0.000080
C34	C	-1.088505	0.429060	0.000086
C35	C	-1.089841	0.360831	0.000092
N36	N	-1.089205	-0.105059	-0.195573
C37	C	-1.151985	-0.053695	0.239033
C38	C	-1.151990	-0.053694	0.325580
C39	C	-1.089168	-0.105045	0.368852
C40	C	-1.026332	-0.156396	0.325572
C41	C	-1.026323	-0.156392	0.239027
C42	C	-1.026363	-0.156410	0.674601
C43	C	-1.026378	-0.156411	0.761152
C44	C	-1.152030	-0.053712	0.761154
C45	C	-1.152022	-0.053708	0.674608
C46	C	-1.089182	-0.105055	0.631336
C47	C	-1.089177	-0.105055	0.537492
C48	C	-1.089178	-0.105050	0.462694
H49	H	-1.246907	0.140840	0.000124
H50	H	-1.203180	-0.011896	0.639378
H51	H	-1.203150	-0.011882	0.360813
H52	H	-1.203195	-0.011899	0.796395
O53	O	-0.928959	0.100816	0.000186
C54	C	-0.924796	0.054637	0.071403
H55	H	-0.997983	0.050549	0.095154
H56	H	-0.890315	-0.004652	0.055382
H57	H	-0.882723	0.080668	0.121261
O58	O	-0.965268	-0.206174	0.367698
C59	C	-0.908463	-0.165536	0.417760
H60	H	-0.945331	-0.106378	0.430732
H61	H	-0.893811	-0.197102	0.478615
H62	H	-0.840315	-0.160267	0.384418
H63	H	-1.203146	-0.011882	0.203806
O64	O	-0.965255	-0.206320	0.803060
C65	C	-0.909801	-0.251651	0.746310
H66	H	-0.908825	-0.220618	0.684623
H67	H	-0.836133	-0.263054	0.771327
H68	H	-0.939603	-0.307936	0.737092
O69	O	-0.965258	-0.206347	0.197117
C70	C	-0.909796	-0.251660	0.253866
H71	H	-0.947609	-0.252589	0.315554
H72	H	-0.895584	-0.312077	0.228848
H73	H	-0.841350	-0.226958	0.263084
H74	H	-0.975199	-0.198220	0.639376
H75	H	-0.934231	0.505837	0.000061
O76	O	-1.257258	0.291584	0.000006
C77	C	-1.308761	0.277713	-0.071203
H78	H	-1.285982	0.217857	-0.094945
H79	H	-1.385686	0.283162	-0.055174
H80	H	-1.296263	0.320904	-0.121071
O81	O	-1.252562	0.533483	0.000069
C82	C	-1.325724	0.593117	0.000095
H83	H	-1.299997	0.646778	-0.025938
H84	H	-1.384945	0.576535	-0.039819
H85	H	-1.351392	0.604261	0.066059
H86	H	-1.236367	0.681395	0.000103
O87	O	-0.918096	0.653827	-0.000089
C88	C	-0.867358	0.629096	-0.071299
H89	H	-0.916962	0.612601	-0.121060
H90	H	-0.828240	0.676973	-0.095209
H91	H	-0.815844	0.577719	-0.055211
O92	O	-0.925945	0.256653	0.000107
C93	C	-0.942439	0.336708	0.000090
H94	H	-1.014445	0.355153	0.026127
H95	H	-0.888179	0.361023	0.040003
H96	H	-0.938028	0.358683	-0.065873
