data_functionalizedCrystal
_audit_creation_method	'MofGen! by Chris Wilmer'
_symmetry_space_group_name_H-M	'P1'
_symmetry_Int_Tables_number	1
_symmetry_cell_setting	triclinic
loop_
_symmetry_equiv_pos_as_xyz
  x,y,z
_cell_length_a	14.853567
_cell_length_b	14.044220
_cell_length_c	13.930277
_cell_angle_alpha	89.994760
_cell_angle_beta	89.995755
_cell_angle_gamma	88.411904
loop_
_atom_site_label
_atom_site_type_symbol
_atom_site_fract_x
_atom_site_fract_y
_atom_site_fract_z
O1	O	1.206174	0.123767	-0.079767
O2	O	0.944883	0.138510	-0.079784
O3	O	1.071607	-0.006851	-0.079766
O4	O	1.079450	0.269128	-0.079785
O5	O	1.071587	-0.006854	0.079896
O6	O	0.944863	0.138507	0.079878
O7	O	1.206155	0.123764	0.079895
Zn8	Zn	1.075506	0.131135	0.105236
Zn9	Zn	1.075532	0.131139	-0.105125
O10	O	1.079431	0.269125	0.079877
C11	C	0.911231	0.137841	0.000045
C12	C	0.810989	0.135839	0.000039
C13	C	0.390944	0.041029	0.000067
C14	C	0.383345	0.213721	0.000054
C15	C	0.477528	0.215604	0.000051
C16	C	0.528423	0.130197	0.000054
C17	C	0.485135	0.042908	0.000061
C18	C	0.520822	0.302891	0.000035
C19	C	0.615011	0.304777	0.000031
C20	C	0.665908	0.219369	0.000041
C21	C	0.622615	0.132077	0.000048
C22	C	0.673510	0.046670	0.000052
C23	C	0.630218	-0.040623	0.000066
C24	C	0.536032	-0.042499	0.000071
C25	C	0.760094	0.221246	0.000036
C26	C	0.767702	0.048550	0.000046
C27	C	1.068163	-0.042172	0.000065
C28	C	1.057921	-0.147411	0.000066
C29	C	1.039197	-0.340097	0.000051
C30	C	1.111836	-0.397635	0.000052
C31	C	1.101418	-0.504852	0.000044
C32	C	1.049614	-0.232870	0.000059
C33	C	1.239806	0.124433	0.000064
C34	C	1.340048	0.126435	0.000064
C35	C	1.082874	0.304446	0.000044
C36	C	1.093116	0.409685	0.000037
N37	N	1.075495	0.131132	0.248802
N38	N	1.075549	0.131135	-0.248691
C39	C	1.019414	0.195480	0.701064
C40	C	1.131673	0.066791	0.701049
C41	C	1.131663	0.066788	0.600553
C42	C	1.075527	0.131133	0.550308
C43	C	1.019403	0.195481	0.600559
C44	C	1.187792	0.002448	0.550295
C45	C	1.187784	0.002443	0.449793
C46	C	1.131644	0.066784	0.399546
C47	C	1.075517	0.131134	0.449803
C48	C	1.019382	0.195479	0.399558
C49	C	0.963249	0.259825	0.449813
C50	C	0.963263	0.259822	0.550312
C51	C	1.131630	0.066787	0.299047
C52	C	1.019371	0.195480	0.299053
H53	H	0.500776	-0.113569	0.000105
N54	N	0.946460	-0.381495	0.000057
H55	H	0.912589	-0.359445	-0.059126
H56	H	0.952144	-0.453323	0.000093
H57	H	0.973655	0.247874	0.258150
N58	N	0.685111	-0.132742	0.000068
H59	H	0.724356	-0.135808	-0.059123
H60	H	0.724307	-0.135750	0.059289
N61	N	0.902709	0.329229	0.395617
H62	H	0.911227	0.319464	0.324327
H63	H	0.837867	0.318152	0.413188
H64	H	0.917562	0.312211	0.591236
H65	H	0.973709	0.247867	0.741984
H66	H	0.479377	0.372424	0.000023
H67	H	1.177382	0.014408	0.741962
N68	N	1.204577	-0.356230	0.000082
H69	H	1.251604	-0.409569	0.000087
H70	H	1.212065	-0.315664	-0.059099
N71	N	0.661697	0.398925	0.000034
H72	H	0.729087	0.387159	0.000036
H73	H	0.643579	0.436307	-0.059155
H74	H	1.233501	-0.049936	0.591208
N75	N	1.192158	-0.002626	0.244861
H76	H	1.154319	-0.044670	0.203185
H77	H	1.234982	0.033728	0.203199
N78	N	0.822594	-0.043569	0.000060
H79	H	0.780875	-0.099148	0.000072
H80	H	0.861838	-0.046555	-0.059131
N81	N	0.344259	-0.053120	0.000095
H82	H	0.276869	-0.041357	0.000104
H83	H	0.362380	-0.090502	-0.059089
N84	N	1.248322	-0.066956	0.395593
H85	H	1.283884	-0.107716	0.442674
H86	H	1.210429	-0.108933	0.353910
H87	H	0.341900	0.283255	0.000044
H88	H	0.795338	0.292318	0.000026
