data_functionalizedCrystal
_audit_creation_method	'MofGen! by Chris Wilmer'
_symmetry_space_group_name_H-M	'P1'
_symmetry_Int_Tables_number	1
_symmetry_cell_setting	triclinic
loop_
_symmetry_equiv_pos_as_xyz
  x,y,z
_cell_length_a	12.759401
_cell_length_b	21.295416
_cell_length_c	12.759393
_cell_angle_alpha	90.036747
_cell_angle_beta	89.981504
_cell_angle_gamma	89.969391
loop_
_atom_site_label
_atom_site_type_symbol
_atom_site_fract_x
_atom_site_fract_y
_atom_site_fract_z
Zn1	Zn	1.606141	0.250567	-0.593945
Zn2	Zn	2.106141	0.750567	-0.093945
Zn3	Zn	1.605987	0.355851	-0.418249
Zn4	Zn	2.105987	0.855851	0.081751
Zn5	Zn	1.430443	0.250600	-0.418284
Zn6	Zn	1.930443	0.750600	0.081716
Zn7	Zn	1.430384	0.355803	-0.593891
Zn8	Zn	1.930384	0.855803	-0.093891
O9	O	1.518239	0.303205	-0.506092
O10	O	2.018239	0.803205	-0.006092
O11	O	1.753141	0.264540	-0.570647
O12	O	2.253141	0.764540	-0.070647
O13	O	1.582662	0.341924	-0.271233
O14	O	2.082662	0.841924	0.228767
O15	O	1.453839	0.162507	-0.441623
O16	O	1.953839	0.662507	0.058377
O17	O	1.753029	0.341891	-0.441564
O18	O	2.253029	0.841891	0.058436
O19	O	1.582923	0.162482	-0.570681
O20	O	2.082923	0.662482	-0.070681
O21	O	1.453690	0.264596	-0.271259
O22	O	1.953690	0.764596	0.228741
O23	O	1.283414	0.264549	-0.441571
O24	O	1.783414	0.764549	0.058429
O25	O	1.453737	0.341809	-0.740919
O26	O	1.953737	0.841809	-0.240919
O27	O	1.283370	0.341841	-0.570588
O28	O	1.783370	0.841841	-0.070588
O29	O	1.582866	0.264493	-0.740959
O30	O	2.082866	0.764493	-0.240959
O31	O	1.582604	0.443934	-0.441511
O32	O	2.082604	0.943934	0.058489
O33	O	1.453589	0.443899	-0.570554
O34	O	1.953589	0.943899	-0.070554
C35	C	1.245271	0.303194	-0.506078
C36	C	1.745271	0.803194	-0.006078
C37	C	1.128495	0.303205	-0.506097
C38	C	1.628495	0.803205	-0.006097
C39	C	1.518102	0.466757	-0.506046
C40	C	2.018102	0.966757	-0.006046
C41	C	1.518139	0.536725	-0.506061
C42	C	2.018139	1.036725	-0.006061
C43	C	0.963906	0.343521	-0.573177
C44	C	1.463906	0.843521	-0.073177
C45	C	1.073630	0.343514	-0.573166
C46	C	1.573630	0.843514	-0.073166
C47	C	1.073629	0.262904	-0.439026
C48	C	1.573629	0.762904	0.060974
C49	C	0.963907	0.262914	-0.439032
C50	C	1.463907	0.762914	0.060968
C51	C	1.585377	0.569589	-0.438940
C52	C	2.085377	1.069589	0.061060
C53	C	1.585427	0.635332	-0.438968
C54	C	2.085427	1.135332	0.061032
C55	C	1.518220	0.668208	-0.506107
C56	C	2.018220	1.168208	-0.006107
C57	C	1.450977	0.635335	-0.573241
C58	C	1.950977	1.135335	-0.073241
C59	C	1.450937	0.569594	-0.573219
C60	C	1.950937	1.069594	-0.073219
N61	N	1.426313	0.771473	-0.514119
N62	N	1.926313	1.271473	-0.014119
N63	N	1.426354	0.833925	-0.514134
N64	N	1.926354	1.333925	-0.014134
C65	C	1.518338	0.866282	-0.506181
C66	C	2.018338	1.366282	-0.006181
N67	N	1.610282	0.833829	-0.498192
N68	N	2.110282	1.333829	0.001808
N69	N	1.610240	0.771372	-0.498171
N70	N	2.110240	1.271372	0.001829
C71	C	1.518256	0.739493	-0.506140
C72	C	2.018256	1.239493	-0.006140
C73	C	1.585636	0.970432	-0.439087
C74	C	2.085636	1.470432	0.060913
C75	C	1.585687	1.036176	-0.439123
C76	C	2.085687	1.536176	0.060877
C77	C	1.451228	1.036178	-0.573391
C78	C	1.951228	1.536178	-0.073391
C79	C	1.451186	0.970436	-0.573360
C80	C	1.951186	1.470436	-0.073360
C81	C	1.518388	0.937567	-0.506203
C82	C	2.018388	1.437567	-0.006203
C83	C	1.792272	0.303217	-0.506108
C84	C	2.292272	0.803217	-0.006108
C85	C	1.909049	0.303222	-0.506114
C86	C	2.409049	0.803222	-0.006114
C87	C	1.518312	0.303142	-0.780126
C88	C	2.018312	0.803142	-0.280126
C89	C	1.518343	0.303115	-0.896903
C90	C	2.018343	0.803115	-0.396903
C91	C	1.518406	1.139015	-0.506180
C92	C	2.018406	1.639015	-0.006180
C93	C	1.518481	1.069047	-0.506264
C94	C	2.018481	1.569047	-0.006264
C95	C	1.451212	0.262843	-0.951777
C96	C	1.951212	0.762843	-0.451777
C97	C	1.451236	0.262824	-1.061502
C98	C	1.951236	0.762824	-0.561502
C99	C	1.585533	0.343349	-1.061466
C100	C	2.085533	0.843349	-0.561466
C101	C	1.585502	0.343371	-0.951744
C102	C	2.085502	0.843371	-0.451744
C103	C	1.518226	0.303223	-0.233125
C104	C	2.018226	0.803223	0.266875
C105	C	1.518398	0.303073	-0.116349
C106	C	2.018398	0.803073	0.383651
H107	H	0.919244	0.376343	-0.627799
H108	H	1.419244	0.876343	-0.127799
C109	C	1.659639	1.072330	-0.365275
C110	C	2.159639	1.572330	0.134725
H111	H	1.650044	1.116191	-0.374910
H112	H	2.150044	1.616191	0.125090
H113	H	1.644277	1.061598	-0.294673
H114	H	2.144277	1.561598	0.205327
H115	H	1.730224	1.061512	-0.380695
H116	H	2.230224	1.561512	0.119305
C117	C	1.659352	0.387671	-0.891378
C118	C	2.159352	0.887671	-0.391378
H119	H	1.699364	0.411637	-0.939752
H120	H	2.199364	0.911637	-0.439752
H121	H	1.619121	0.415104	-0.848559
H122	H	2.119121	0.915104	-0.348559
H123	H	1.705145	0.363598	-0.848590
H124	H	2.205145	0.863598	-0.348590
H125	H	1.396258	0.662107	-0.627908
H126	H	1.896258	1.162107	-0.127908
H127	H	1.396511	1.062945	-0.628061
H128	H	1.896511	1.562945	-0.128061
H129	H	1.396570	0.230031	-1.106176
H130	H	1.896570	0.730031	-0.606176
H131	H	1.640212	0.376125	-1.106132
H132	H	2.140212	0.876125	-0.606132
C133	C	1.377324	0.218573	-0.891455
C134	C	1.877324	0.718573	-0.391455
H135	H	1.337338	0.194592	-0.939855
H136	H	1.837338	0.694592	-0.439855
H137	H	1.417518	0.191153	-0.848663
H138	H	1.917518	0.691153	-0.348663
H139	H	1.331509	0.242669	-0.848645
H140	H	1.831509	0.742669	-0.348645
C141	C	1.133974	0.387850	-0.646921
C142	C	1.633974	0.887850	-0.146921
H143	H	1.207178	0.382080	-0.637300
H144	H	1.707178	0.882080	-0.137300
H145	H	1.116036	0.378697	-0.717545
H146	H	1.616036	0.878697	-0.217545
H147	H	1.115948	0.430135	-0.631398
H148	H	1.615948	0.930135	-0.131398
H149	H	0.919241	0.230097	-0.384416
H150	H	1.419241	0.730097	0.115584
C151	C	1.133977	0.218563	-0.365252
C152	C	1.633977	0.718563	0.134748
H153	H	1.207181	0.224323	-0.374860
H154	H	1.707181	0.724323	0.125140
H155	H	1.115965	0.227725	-0.294634
H156	H	1.615965	0.727725	0.205366
H157	H	1.116024	0.176279	-0.380767
H158	H	1.616024	0.676279	0.119233
C159	C	1.659309	0.533437	-0.365082
C160	C	2.159309	1.033437	0.134918
H161	H	1.699368	0.562429	-0.325117
H162	H	2.199368	1.062429	0.174883
H163	H	1.619135	0.507833	-0.319261
H164	H	2.119135	1.007833	0.180739
H165	H	1.705054	0.507750	-0.405311
H166	H	2.205054	1.007750	0.094689
H167	H	1.640360	0.943669	-0.384407
H168	H	2.140360	1.443669	0.115593
C169	C	1.377217	0.934280	-0.647186
C170	C	1.877217	1.434280	-0.147186
H171	H	1.386824	0.890419	-0.637562
H172	H	1.886824	1.390419	-0.137562
H173	H	1.306641	0.945100	-0.631756
H174	H	1.806641	1.445100	-0.131756
H175	H	1.392570	0.945010	-0.717797
H176	H	1.892570	1.445010	-0.217797
H177	H	1.640184	0.662095	-0.384310
H178	H	2.140184	1.162095	0.115690
C179	C	1.376966	0.533442	-0.647050
C180	C	1.876966	1.033442	-0.147050
H181	H	1.336942	0.562435	-0.687038
H182	H	1.836942	1.062435	-0.187038
H183	H	1.417112	0.507748	-0.692849
H184	H	1.917112	1.007748	-0.192849
H185	H	1.331189	0.507845	-0.606802
H186	H	1.831189	1.007845	-0.106802
