data_functionalizedCrystal
_audit_creation_method	'MofGen! by Chris Wilmer'
_symmetry_space_group_name_H-M	'P1'
_symmetry_Int_Tables_number	1
_symmetry_cell_setting	triclinic
loop_
_symmetry_equiv_pos_as_xyz
  x,y,z
_cell_length_a	29.999520
_cell_length_b	29.998686
_cell_length_c	29.995014
_cell_angle_alpha	60.005185
_cell_angle_beta	60.010401
_cell_angle_gamma	59.993433
loop_
_atom_site_label
_atom_site_type_symbol
_atom_site_fract_x
_atom_site_fract_y
_atom_site_fract_z
O1	O	0.061772	-0.651300	0.544623
O2	O	0.023267	-0.507084	0.438819
O3	O	0.114589	-0.598332	0.438743
O4	O	-0.029550	-0.560051	0.544699
O5	O	0.144886	-0.568039	0.468961
O6	O	0.053564	-0.476791	0.469038
O7	O	0.092069	-0.621007	0.574841
Zn8	Zn	0.077627	-0.544089	0.526737
Zn9	Zn	0.037709	-0.584002	0.486923
O10	O	0.000748	-0.529758	0.574918
N11	N	0.104871	-0.516854	0.553912
N12	N	0.010470	-0.611242	0.459748
C13	C	0.143162	-0.478782	0.827124
C14	C	0.378203	-0.478734	0.591892
C15	C	0.143005	-0.478752	0.591997
C16	C	0.142986	-0.243586	0.592008
C17	C	0.180857	-0.357087	0.629814
C18	C	0.180866	-0.440920	0.629807
C19	C	0.201840	-0.419964	0.650755
C20	C	0.293272	-0.404201	0.602606
C21	C	0.350426	-0.423248	0.583534
C22	C	0.350451	-0.515727	0.618798
C23	C	0.293297	-0.496678	0.637872
C24	C	0.194628	-0.328499	0.573626
C25	C	0.175551	-0.271340	0.554591
C26	C	0.128936	-0.271362	0.647935
C27	C	0.148014	-0.328521	0.666970
C28	C	0.124672	-0.427119	0.643641
C29	C	0.105611	-0.446170	0.624592
C30	C	0.198934	-0.492820	0.577889
C31	C	0.217998	-0.473770	0.596931
C32	C	0.124740	-0.427136	0.742229
C33	C	0.105728	-0.446202	0.799386
C34	C	0.199085	-0.492863	0.799337
C35	C	0.218096	-0.473798	0.742178
C36	C	0.180923	-0.440933	0.713626
C37	C	0.264710	-0.440915	0.629773
C38	C	0.121509	-0.499370	0.889991
C39	C	0.441068	-0.498953	0.570621
C40	C	0.121297	-0.499349	0.571429
C41	C	0.121653	-0.180715	0.571802
C42	C	-0.111071	-0.648912	0.421584
C43	C	-0.027286	-0.649018	0.421777
C44	C	-0.048200	-0.669944	0.400740
C45	C	-0.064036	-0.761340	0.448814
C46	C	-0.045033	-0.818500	0.467893
C47	C	0.047447	-0.818609	0.432797
C48	C	0.028444	-0.761451	0.413717
C49	C	-0.139731	-0.662677	0.477755
C50	C	-0.196885	-0.643554	0.496701
C51	C	-0.196717	-0.596907	0.403303
C52	C	-0.139562	-0.616030	0.384357
C53	C	-0.041053	-0.592827	0.407952
C54	C	-0.022041	-0.573809	0.427083
C55	C	0.024504	-0.667167	0.473848
C56	C	0.005492	-0.686188	0.454725
C57	C	-0.040886	-0.592836	0.309259
C58	C	-0.021740	-0.573821	0.252102
C59	C	0.024886	-0.667185	0.252163
C60	C	0.005743	-0.686199	0.309322
C61	C	-0.027145	-0.649023	0.337868
C62	C	-0.027299	-0.732818	0.421728
N63	N	0.492511	-0.516826	0.553742
O64	O	0.679283	-0.525926	0.419277
O65	O	0.679465	-0.632059	0.563349
O66	O	0.679393	-0.631817	0.471975
O67	O	0.679355	-0.526168	0.510650
O68	O	0.588593	-0.601610	0.502313
O69	O	0.588665	-0.601852	0.593686
O70	O	0.588483	-0.495720	0.449614
Zn71	Zn	0.574158	-0.543990	0.526467
Zn72	Zn	0.693790	-0.583788	0.486496
O73	O	0.588555	-0.495962	0.540987
N74	N	0.775436	-0.610952	0.459215
N75	N	0.104844	-0.129269	0.553931
O76	O	-0.029548	0.057600	0.544709
O77	O	0.114530	0.057617	0.438578
O78	O	0.023130	0.057594	0.438850
O79	O	0.061852	0.057623	0.544437
O80	O	0.053431	-0.033213	0.469115
O81	O	0.144831	-0.033190	0.468843
O82	O	0.000753	-0.033207	0.574974
Zn83	Zn	0.077603	-0.047616	0.526714
Zn84	Zn	0.037680	0.072026	0.486838
O85	O	0.092153	-0.033184	0.574702
N86	N	0.010432	0.153679	0.459622
N87	N	0.105130	-0.516904	0.941437
O88	O	0.095923	-0.651280	1.128292
O89	O	-0.010184	-0.507155	1.128318
O90	O	-0.009938	-0.598539	1.128284
O91	O	0.095677	-0.559897	1.128326
O92	O	0.020315	-0.568257	1.037481
O93	O	0.020068	-0.476874	1.037515
O94	O	0.126176	-0.620999	1.037489
Zn95	Zn	0.077925	-0.544128	1.023085
Zn96	Zn	0.038066	-0.584026	1.142722
O97	O	0.125929	-0.529616	1.037523
N98	N	0.010860	-0.611256	1.224371
C99	C	0.034807	-0.473765	0.439352
C100	C	0.147897	-0.586765	0.439257
C101	C	0.080529	-0.654326	0.574308
C102	C	-0.032561	-0.541326	0.574403
C103	C	0.634087	-0.631571	0.596668
C104	C	0.633999	-0.631272	0.483513
C105	C	0.633858	-0.496206	0.416295
C106	C	0.633949	-0.496507	0.529449
C107	C	0.147793	0.012327	0.439058
C108	C	0.034644	0.012187	0.439432
C109	C	-0.032548	0.012195	0.574457
C110	C	0.080639	0.012222	0.574120
C111	C	-0.009670	-0.473857	1.082920
C112	C	-0.009359	-0.587018	1.082860
C113	C	0.125662	-0.654297	1.082887
C114	C	0.125358	-0.541129	1.082927
H115	H	0.094465	-0.400370	0.718985
O116	O	-0.053292	-0.597940	1.082784
H117	H	-0.037666	-0.640179	1.082753
O118	O	0.091421	-0.709198	0.618331
H119	H	0.101518	-0.741598	0.603618
H120	H	0.634133	-0.664888	0.638048
H121	H	-0.073925	0.012190	0.607776
H122	H	-0.073962	-0.533167	0.607674
H123	H	0.158977	-0.695688	1.082873
O124	O	0.023668	0.012182	0.395486
H125	H	-0.018574	0.012173	0.411117
O126	O	0.060346	-0.707281	0.221376
H127	H	0.100385	-0.700889	0.195403
O128	O	0.634016	-0.675238	0.472558
H129	H	0.633968	-0.659614	0.430324
O130	O	0.093528	-0.240540	0.688004
H131	H	0.053498	-0.214497	0.681582
H132	H	0.633799	-0.462884	0.374920
H133	H	-0.220220	-0.654760	0.542443
H134	H	0.026581	-0.432337	0.406123
H135	H	0.158538	-0.532861	1.082933
O136	O	0.202735	-0.597567	0.395182
H137	H	0.210461	-0.632351	0.385231
O138	O	0.633937	-0.452538	0.540397
H139	H	0.596947	-0.442654	0.575216
O140	O	0.045127	-0.431306	0.830234
H141	H	0.022476	-0.405244	0.800774
H142	H	0.088930	0.012231	0.607291
O143	O	0.239179	-0.528349	0.830131
H144	H	0.281440	-0.534757	0.800636
H145	H	0.263756	-0.485001	0.585661
O146	O	0.278697	-0.488677	0.711327
H147	H	0.301349	-0.514726	0.740786
O148	O	0.202485	0.012674	0.394805
H149	H	0.229245	0.012770	0.410201
O150	O	-0.053803	-0.419031	1.082933
H151	H	-0.038370	-0.392259	1.082952
H152	H	0.059853	-0.434921	0.635844
O153	O	0.084621	-0.391696	0.679107
H154	H	0.058562	-0.353940	0.656441
O155	O	0.238973	-0.528244	0.542422
H156	H	0.265039	-0.566002	0.565079
O157	O	0.262490	-0.536279	0.667167
H158	H	0.273491	-0.566851	0.704259
O159	O	0.381292	-0.575873	0.627531
H160	H	0.351828	-0.598205	0.649632
O161	O	-0.108649	-0.601180	0.323768
H162	H	-0.064120	-0.619996	0.316847
O163	O	0.381237	-0.383653	0.554232
H164	H	0.351756	-0.341675	0.551801
H165	H	0.092838	-0.841923	0.426277
H166	H	0.221368	-0.351757	0.543370
O167	O	0.262438	-0.344057	0.593877
H168	H	0.291904	-0.321730	0.571785
H169	H	0.186762	-0.248063	0.508836
H170	H	0.136793	-0.351798	0.712725
H171	H	-0.032937	-0.528066	0.228816
H172	H	-0.067667	-0.562559	0.332499
H173	H	-0.067739	-0.562558	0.381123
O174	O	0.020564	-0.746804	0.340180
H175	H	0.046642	-0.769458	0.310725
H176	H	-0.033252	-0.528055	0.415829
H177	H	0.051198	-0.697438	0.500669
H178	H	0.058362	-0.738230	0.391661
O179	O	0.020341	-0.746793	0.469624
H180	H	0.046333	-0.769446	0.495743
H181	H	-0.074948	-0.841721	0.489940
H182	H	-0.109425	-0.738032	0.455342
H183	H	-0.116534	-0.689457	0.508068
H184	H	-0.219915	-0.570138	0.372989
