data_functionalizedCrystal
_audit_creation_method	'MofGen! by Chris Wilmer'
_symmetry_space_group_name_H-M	'P1'
_symmetry_Int_Tables_number	1
_symmetry_cell_setting	triclinic
loop_
_symmetry_equiv_pos_as_xyz
  x,y,z
_cell_length_a	16.120490
_cell_length_b	14.908520
_cell_length_c	14.908308
_cell_angle_alpha	83.639235
_cell_angle_beta	89.450064
_cell_angle_gamma	90.579997
loop_
_atom_site_label
_atom_site_type_symbol
_atom_site_fract_x
_atom_site_fract_y
_atom_site_fract_z
Zn1	Zn	1.217784	-0.460943	0.603378
Zn2	Zn	1.217690	-0.603583	0.460743
Zn3	Zn	1.087714	-0.444655	0.444473
Zn4	Zn	1.070715	-0.603678	0.603506
O5	O	1.148476	-0.528215	0.528025
O6	O	1.333716	-0.486641	0.591213
O7	O	1.207523	-0.575644	0.332335
O8	O	1.112121	-0.320568	0.458689
O9	O	1.333647	-0.591438	0.486420
O10	O	1.207684	-0.332535	0.575436
O11	O	1.112030	-0.458880	0.320382
O12	O	0.969514	-0.458973	0.458813
O13	O	1.083150	-0.591601	0.729738
O14	O	0.957026	-0.575807	0.575654
O15	O	1.191201	-0.486734	0.729644
O16	O	1.191041	-0.729843	0.486543
O17	O	1.083059	-0.729913	0.591431
C18	C	1.135216	-0.762615	0.540787
C19	C	1.129618	-0.862898	0.546282
C20	C	0.933207	-0.515633	0.515482
C21	C	0.841111	-0.510274	0.510139
C22	C	1.231643	-1.051218	0.447487
C23	C	1.226386	-1.145444	0.452646
C24	C	1.113851	-1.145576	0.561765
C25	C	1.119108	-1.051351	0.556605
C26	C	1.178005	-1.004175	0.499463
C27	C	1.183258	-0.909948	0.494299
C28	C	1.070727	-0.910082	0.603422
C29	C	1.065470	-1.004307	0.608582
C30	C	0.625299	-0.556008	0.555742
C31	C	0.672496	-0.500497	0.500383
C32	C	0.766322	-0.505939	0.505813
C33	C	0.531464	-0.550568	0.550313
C34	C	1.364586	-0.540846	0.540617
C35	C	1.456679	-0.546228	0.545983
C36	C	1.135290	-0.540995	0.763341
C37	C	1.129671	-0.546441	0.863619
C38	C	1.161809	-0.292902	0.515234
C39	C	1.167491	-0.192625	0.509783
C40	C	1.161662	-0.515422	0.293623
C41	C	1.167456	-0.509731	0.193341
C42	C	1.231624	-0.447456	1.051955
C43	C	1.226347	-0.452570	1.146175
C44	C	1.113837	-0.561779	1.146281
C45	C	1.119114	-0.556664	1.052061
C46	C	1.178010	-0.499502	1.004901
C47	C	1.183290	-0.494393	0.910680
C48	C	1.070777	-0.603596	0.910787
C49	C	1.065500	-0.608711	1.005007
H50	H	1.231213	-0.871538	0.447769
N51	N	1.295152	-0.385818	1.001084
H52	H	1.328319	-0.353625	1.045191
H53	H	1.265982	-0.339973	0.957755
H54	H	1.231248	-0.447850	0.872284
N55	N	0.632695	-0.432132	0.432194
H56	H	0.597085	-0.390330	0.464609
H57	H	0.597101	-0.464487	0.390300
N58	N	0.665106	-0.624377	0.623914
H59	H	0.727461	-0.618622	0.618170
H60	H	0.647186	-0.687159	0.612407
N61	N	1.284166	-0.396427	1.196927
H62	H	1.322273	-0.359439	1.152751
H63	H	1.318244	-0.437505	1.240253
H64	H	1.065886	-0.608317	1.184694
N65	N	1.001963	-0.670342	1.055871
H66	H	1.006749	-0.665679	1.122699
H67	H	1.012122	-0.734638	1.043668
N68	N	1.012924	-0.659708	0.860031
H69	H	0.974809	-0.696686	0.904206
H70	H	1.046458	-0.701313	0.825163
H71	H	1.279594	-1.012807	0.400953
H72	H	1.270065	-1.183743	0.410323
H73	H	1.017520	-1.042731	0.655108
N74	N	1.050335	-1.196466	0.623397
H75	H	1.055148	-1.263295	0.618778
H76	H	0.992876	-1.175845	0.604953
N77	N	1.012865	-0.859343	0.659482
H78	H	1.025129	-0.792493	0.647542
H79	H	1.021179	-0.880024	0.725577
