data_functionalizedCrystal
_audit_creation_method	'MofGen! by Chris Wilmer'
_symmetry_space_group_name_H-M	'P1'
_symmetry_Int_Tables_number	1
_symmetry_cell_setting	triclinic
loop_
_symmetry_equiv_pos_as_xyz
  x,y,z
_cell_length_a	25.639240
_cell_length_b	12.759401
_cell_length_c	12.759393
_cell_angle_alpha	90.018496
_cell_angle_beta	89.967965
_cell_angle_gamma	89.967780
loop_
_atom_site_label
_atom_site_type_symbol
_atom_site_fract_x
_atom_site_fract_y
_atom_site_fract_z
Zn1	Zn	-0.208118	-1.606129	-0.593978
Zn2	Zn	-0.295564	-1.605970	-0.418297
Zn3	Zn	-0.208145	-1.430431	-0.418317
Zn4	Zn	-0.295524	-1.430366	-0.593938
O5	O	-0.251838	-1.518224	-0.506132
O6	O	-0.219723	-1.753129	-0.570681
O7	O	-0.283996	-1.582645	-0.271278
O8	O	-0.134976	-1.453831	-0.441644
O9	O	-0.283970	-1.753012	-0.441609
O10	O	-0.134956	-1.582915	-0.570701
O11	O	-0.219770	-1.453677	-0.271293
O12	O	-0.219731	-1.283401	-0.441606
O13	O	-0.283901	-1.453721	-0.740964
O14	O	-0.283928	-1.283354	-0.570634
O15	O	-0.219684	-1.582853	-0.740994
O16	O	-0.368724	-1.582582	-0.441570
O17	O	-0.368695	-1.453567	-0.570613
C18	C	-0.251828	-1.245256	-0.506118
C19	C	-0.251837	-1.128480	-0.506137
C20	C	-0.387680	-1.518079	-0.506108
C21	C	-0.445794	-1.518113	-0.506133
C22	C	-0.696926	-1.585432	-0.573401
C23	C	-0.642322	-1.585401	-0.573393
O24	O	-0.614033	-1.642517	-0.630552
N25	N	-0.615068	-1.518228	-0.506146
C26	C	-0.642422	-1.451089	-0.438895
O27	O	-0.614227	-1.393952	-0.381695
C28	C	-0.697025	-1.451127	-0.438899
C29	C	-0.724276	-1.518297	-0.506158
C30	C	-0.724177	-1.652597	-0.640654
C31	C	-0.778777	-1.652627	-0.640663
C32	C	-0.806127	-1.585492	-0.573419
C33	C	-0.778876	-1.518327	-0.506167
C34	C	-0.724378	-1.383995	-0.371643
C35	C	-0.778985	-1.384039	-0.371652
C36	C	-0.806236	-1.451209	-0.438911
C37	C	-0.860827	-1.451222	-0.438932
N38	N	-0.888080	-1.518394	-0.506179
C39	C	-0.860731	-1.585530	-0.573423
C40	C	-0.527751	-1.451017	-0.438892
C41	C	-0.473149	-1.450973	-0.438893
C42	C	-0.473053	-1.585286	-0.573390
C43	C	-0.527656	-1.585324	-0.573393
C44	C	-0.555005	-1.518190	-0.506139
C45	C	-0.975396	-1.585587	-0.573437
C46	C	-1.030001	-1.585608	-0.573443
C47	C	-1.030093	-1.451299	-0.438943
C48	C	-0.975492	-1.451274	-0.438940
C49	C	-0.948145	-1.518426	-0.506191
O50	O	-0.889151	-1.394137	-0.381800
O51	O	-0.888932	-1.642668	-0.630604
C52	C	-0.251785	-1.518297	-0.780166
C53	C	-0.251763	-1.518329	-0.896943
C54	C	-0.115465	-1.518398	-0.506180
C55	C	-0.057351	-1.518472	-0.506200
C56	C	-0.251848	-1.792257	-0.506147
C57	C	-0.251852	-1.909034	-0.506154
C58	C	-0.285318	-1.073621	-0.573211
C59	C	-0.285324	-0.963896	-0.573222
C60	C	-0.218368	-0.963901	-0.439077
C61	C	-0.218359	-1.073623	-0.439072
C62	C	-0.318796	-1.128478	-0.640276
C63	C	-0.352280	-1.073618	-0.707354
C64	C	-0.352286	-0.963894	-0.707365
C65	C	-0.318809	-0.909030	-0.640299
C66	C	-0.218322	-1.585577	-0.951822
C67	C	-0.218303	-1.585602	-1.061546
C68	C	-0.285170	-1.451127	-1.061502
C69	C	-0.285186	-1.451098	-0.951780
C70	C	-0.184898	-1.652808	-0.896984
C71	C	-0.151455	-1.720062	-0.951863
C72	C	-0.151436	-1.720087	-1.061587
C73	C	-0.184860	-1.652858	-1.116432
C74	C	-0.251853	-1.518211	-0.233165
C75	C	-0.251728	-1.518383	-0.116389
H76	H	-1.052186	-1.640304	-0.628220
H77	H	-0.184911	-1.652797	-0.807641
H78	H	-0.312409	-1.396322	-0.907097
H79	H	-0.800960	-1.707332	-0.695424
H80	H	-0.124238	-1.774792	-0.907201
H81	H	-0.379532	-1.118296	-0.761964
C82	C	-0.945515	-1.377374	-0.364967
C83	C	-0.907997	-1.294843	-0.410412
C84	C	-0.878026	-1.220947	-0.336430
C85	C	-0.885573	-1.229582	-0.217004
C86	C	-0.923093	-1.312117	-0.171552
C87	C	-0.953064	-1.386013	-0.245534
H88	H	-0.902409	-1.288447	-0.498824
H89	H	-0.850252	-1.159849	-0.370077
H90	H	-0.863387	-1.174880	-0.162238
H91	H	-0.928682	-1.318513	-0.083140
H92	H	-0.980839	-1.447111	-0.211887
C93	C	-0.389115	-0.903546	-0.781150
C94	C	-0.366517	-0.828169	-0.863724
C95	C	-0.403350	-0.767822	-0.937506
C96	C	-0.462781	-0.782853	-0.928714
C97	C	-0.485382	-0.858233	-0.846135
C98	C	-0.448550	-0.918580	-0.772353
H99	H	-0.322520	-0.817039	-0.870236
H100	H	-0.386618	-0.712020	-0.998636
H101	H	-0.490047	-0.738181	-0.983331
H102	H	-0.529380	-0.869363	-0.839623
H103	H	-0.465281	-0.974382	-0.711223
C104	C	-0.114648	-1.794059	-1.121956
C105	C	-0.077884	-1.868004	-1.061633
C106	C	-0.041096	-1.941982	-1.121999
C107	C	-0.041072	-1.942014	-1.242689
C108	C	-0.077837	-1.868066	-1.303020
C109	C	-0.114625	-1.794088	-1.242653
H110	H	-0.077900	-1.867983	-0.972285
H111	H	-0.013880	-1.996723	-1.077338
H112	H	-0.013839	-1.996777	-1.287376
H113	H	-0.077821	-1.868087	-1.392368
H114	H	-0.141841	-1.739347	-1.287314
H115	H	-0.191092	-1.118290	-0.384462
C116	C	-0.321939	-1.377187	-1.121829
C117	C	-0.321924	-1.377222	-1.242519
C118	C	-0.358695	-1.303283	-1.302844
C119	C	-0.395481	-1.229309	-1.242478
C120	C	-0.395497	-1.229271	-1.121782
C121	C	-0.358726	-1.303210	-1.061457
H122	H	-0.294692	-1.431985	-1.287211
H123	H	-0.358683	-1.303312	-1.392192
H124	H	-0.422701	-1.174575	-1.287135
H125	H	-0.422729	-1.174509	-1.077090
H126	H	-0.358738	-1.303181	-0.972109
H127	H	-0.953136	-1.640269	-0.628198
H128	H	-0.701913	-1.707272	-0.695411
H129	H	-0.549840	-1.640015	-0.628166
C130	C	-1.060186	-1.377458	-0.364975
C131	C	-1.097729	-1.423074	-0.282546
C132	C	-1.127825	-1.349240	-0.208571
C133	C	-1.120376	-1.229791	-0.217024
C134	C	-1.082831	-1.184170	-0.299456
C135	C	-1.052735	-1.258003	-0.373432
H136	H	-1.103245	-1.511503	-0.276286
H137	H	-1.155619	-1.383013	-0.147550
H138	H	-1.142655	-1.175135	-0.162264
H139	H	-1.077315	-1.095741	-0.305717
H140	H	-1.024942	-1.224230	-0.434453
H141	H	-0.318812	-0.819685	-0.640322
H142	H	-0.191112	-0.919221	-0.384474
H143	H	-0.450775	-1.639953	-0.628142
H144	H	-0.450965	-1.396266	-0.384136
H145	H	-0.550015	-1.396339	-0.384128
H146	H	-0.702198	-1.329300	-0.316874
H147	H	-0.801249	-1.329371	-0.316883
H148	H	-0.318795	-1.217820	-0.640272
H149	H	-0.184836	-1.652871	-1.205777
