data_functionalizedCrystal
_audit_creation_method	'MofGen! by Chris Wilmer'
_symmetry_space_group_name_H-M	'P1'
_symmetry_Int_Tables_number	1
_symmetry_cell_setting	triclinic
loop_
_symmetry_equiv_pos_as_xyz
  x,y,z
_cell_length_a	9.065218
_cell_length_b	15.625429
_cell_length_c	14.185569
_cell_angle_alpha	59.452262
_cell_angle_beta	103.352914
_cell_angle_gamma	84.604571
loop_
_atom_site_label
_atom_site_type_symbol
_atom_site_fract_x
_atom_site_fract_y
_atom_site_fract_z
O1	O	1.900010	0.167046	-0.144175
O2	O	1.468777	0.178935	-0.148501
O3	O	1.716825	0.029203	-0.094036
O4	O	1.651963	0.316778	-0.198640
O5	O	1.790100	-0.015024	0.088886
O6	O	1.542052	0.134708	0.034421
O7	O	1.973285	0.122819	0.038747
Cu8	Cu	1.764359	0.124725	0.053286
Cu9	Cu	1.677703	0.177029	-0.163040
O10	O	1.725237	0.272551	-0.015718
C11	C	1.450615	0.155679	-0.056624
C12	C	1.287332	0.152263	-0.055382
C13	C	1.757791	-0.029745	0.010821
C14	C	1.770671	-0.139501	0.050738
C15	C	1.613296	-0.379944	-0.316495
C16	C	1.625406	-0.483084	-0.278953
C17	C	1.705285	-0.531284	-0.079544
C18	C	1.693190	-0.428146	-0.117069
C19	C	1.647193	-0.352483	-0.235546
C20	C	1.727086	-0.400686	-0.036120
C21	C	1.714983	-0.297557	-0.073643
C22	C	1.668984	-0.221888	-0.192114
C23	C	1.635090	-0.249354	-0.273068
C24	C	1.773072	-0.476350	0.082356
C25	C	1.806969	-0.448889	0.163305
C26	C	1.794877	-0.345759	0.125783
C27	C	1.748877	-0.270091	0.007311
C28	C	1.828771	-0.318293	0.206737
C29	C	1.816668	-0.215164	0.169214
C30	C	1.736775	-0.166962	-0.030211
C31	C	1.991446	0.146076	-0.053132
C32	C	2.154727	0.149494	-0.054381
C33	C	1.684270	0.331500	-0.120578
C34	C	1.671387	0.441258	-0.160502
N35	N	1.825319	0.087937	0.205439
N36	N	1.616756	0.213810	-0.315190
C37	C	1.437662	0.321850	0.488003
C38	C	1.483847	0.293991	0.603159
C39	C	1.703527	0.161453	0.651330
C40	C	1.657355	0.189299	0.536178
C41	C	1.524423	0.269499	0.454522
C42	C	1.744116	0.136947	0.502696
C43	C	1.697953	0.164794	0.387552
C44	C	1.565028	0.244993	0.305890
C45	C	1.478259	0.297346	0.339378
C46	C	1.877055	0.056752	0.584352
C47	C	1.963816	0.004400	0.550871
C48	C	1.917646	0.032242	0.435727
C49	C	1.784722	0.112441	0.354064
C50	C	2.004415	-0.020110	0.402238
C51	C	1.958252	0.007737	0.287094
C52	C	1.738558	0.140288	0.238920
H53	H	1.699333	-0.105352	-0.126686
C54	C	1.857558	-0.532128	0.293626
N55	N	1.895666	-0.594823	0.391786
C56	C	1.849746	0.073232	0.741164
N57	N	1.959876	0.006779	0.808827
H58	H	1.866207	-0.379911	0.303200
H59	H	1.659115	-0.137914	-0.222664
C60	C	2.053690	-0.049855	0.250264
N61	N	2.125579	-0.093234	0.222523
H62	H	1.844238	-0.192804	0.235131
C63	C	1.584498	-0.166119	-0.403399
N64	N	1.546389	-0.103426	-0.501560
H65	H	1.782909	-0.560321	0.112902
C66	C	1.755875	-0.614522	0.050777
N67	N	1.793983	-0.677218	0.148937
C68	C	2.110035	-0.083821	0.640704
N69	N	2.220165	-0.150274	0.708367
C70	C	1.291374	0.410035	0.398189
N71	N	1.181180	0.476440	0.330547
H72	H	1.630302	0.205588	0.172434
H73	H	1.370003	0.362646	0.272892
H74	H	1.413185	0.336630	0.630409
H75	H	1.527447	0.267668	0.212132
H76	H	1.914641	0.034085	0.678106
C77	C	2.150643	-0.108325	0.492072
N78	N	2.260782	-0.174770	0.559735
C79	C	1.562704	-0.296708	-0.446826
N80	N	1.524595	-0.234016	-0.544987
C81	C	1.588072	-0.513280	-0.368015
N82	N	1.559934	-0.536022	-0.435096
