data_functionalizedCrystal
_audit_creation_method	'MofGen! by Chris Wilmer'
_symmetry_space_group_name_H-M	'P1'
_symmetry_Int_Tables_number	1
_symmetry_cell_setting	triclinic
loop_
_symmetry_equiv_pos_as_xyz
  x,y,z
_cell_length_a	19.288864
_cell_length_b	10.540539
_cell_length_c	17.766277
_cell_angle_alpha	89.995823
_cell_angle_beta	89.976791
_cell_angle_gamma	83.830869
loop_
_atom_site_label
_atom_site_type_symbol
_atom_site_fract_x
_atom_site_fract_y
_atom_site_fract_z
O1	O	0.922410	0.158345	-0.062832
O2	O	0.720292	0.179706	-0.062781
O3	O	0.825962	-0.015784	-0.062807
O4	O	0.816739	0.353835	-0.062806
O5	O	0.825943	-0.015794	0.062382
O6	O	0.720273	0.179696	0.062408
O7	O	0.922391	0.158335	0.062356
Cu8	Cu	0.821330	0.169015	0.073813
Cu9	Cu	0.821352	0.169026	-0.074237
O10	O	0.816721	0.353825	0.062382
C11	C	0.694401	0.179013	-0.000180
C12	C	0.617284	0.176950	-0.000160
C13	C	0.573353	0.291654	-0.000172
C14	C	0.500893	0.289716	-0.000180
C15	C	0.472367	0.173067	-0.000192
C16	C	0.516308	0.058347	-0.000176
C17	C	0.588766	0.060289	-0.000160
C18	C	0.363500	0.081371	-0.044076
C19	C	0.291042	0.079434	-0.044097
C20	C	0.248881	0.167074	-0.000237
C21	C	0.279185	0.256671	0.043633
C22	C	0.351644	0.258613	0.043649
C23	C	0.393799	0.170949	-0.000208
C24	C	0.126381	0.279684	-0.000257
C25	C	0.053919	0.277741	-0.000261
C26	C	0.069336	0.046369	-0.000264
C27	C	0.141795	0.048315	-0.000253
C28	C	0.170313	0.164976	-0.000253
C29	C	0.825261	-0.063076	-0.000214
C30	C	0.823192	-0.203978	-0.000217
C31	C	0.743903	-0.385638	-0.000478
C32	C	0.746000	-0.239067	-0.000197
C33	C	0.860329	-0.266470	0.071262
C34	C	0.857694	-0.412955	0.071323
C35	C	0.859286	-0.413497	-0.071040
C36	C	0.859997	-0.266531	-0.071986
C37	C	0.948281	0.159027	-0.000246
C38	C	1.025399	0.161091	-0.000271
C39	C	0.817422	0.401117	-0.000212
C40	C	0.819491	0.542019	-0.000214
N41	N	0.821320	0.169006	0.177943
N42	N	0.821368	0.169025	-0.178368
C43	C	0.868126	0.082485	0.217318
C44	C	0.868130	0.082479	0.296120
C45	C	0.821334	0.169016	0.335544
C46	C	0.774519	0.255543	0.296159
C47	C	0.774512	0.255538	0.217359
C48	C	0.812807	0.284670	0.460383
C49	C	0.812819	0.284676	0.539182
C50	C	0.821353	0.169031	0.578590
C51	C	0.829889	0.053373	0.539189
C52	C	0.829882	0.053368	0.460389
C53	C	0.821337	0.169030	0.420989
C54	C	0.868166	0.082497	0.703411
C55	C	0.868165	0.082489	0.782214
C56	C	0.774558	0.255564	0.782252
C57	C	0.774555	0.255560	0.703450
C58	C	0.821363	0.169028	0.664034
H59	H	0.624535	-0.033120	-0.000151
O60	O	0.038580	-0.079451	-0.000267
H61	H	0.056214	-0.134556	-0.051284
H62	H	0.713418	-0.413555	-0.051736
H63	H	0.906238	0.012023	0.185229
O64	O	0.258363	-0.017196	-0.091416
H65	H	0.200895	-0.003812	-0.084069
H66	H	0.397822	0.010002	-0.079796
O67	O	0.724056	0.348903	0.338673
H68	H	0.669829	0.332987	0.323590
H69	H	0.834311	-0.444489	-0.125218
H70	H	0.906278	0.012027	0.814274
O71	O	0.707279	-0.181746	-0.068056
H72	H	0.686882	-0.258706	-0.101368
O73	O	0.485547	-0.067472	-0.000189
H74	H	0.427781	-0.049552	-0.000209
O75	O	0.703662	-0.424731	0.067064
H76	H	0.737264	-0.495459	0.100821
O77	O	0.934548	-0.236126	-0.077729
H78	H	0.946588	-0.175693	-0.029301
O79	O	0.803585	0.409414	0.417886
H80	H	0.805001	0.389982	0.356473
O81	O	0.707017	-0.182877	0.067816
H82	H	0.686596	-0.260411	0.100637
H83	H	0.906246	0.012021	0.328185
O84	O	0.824058	-0.211506	-0.142037
H85	H	0.826785	-0.106887	-0.143535
H86	H	0.915041	-0.461966	-0.071535
O87	O	0.821311	-0.449519	0.142111
H88	H	0.805758	-0.362614	0.175976
H89	H	0.913209	-0.462161	0.074552
H90	H	0.836830	-0.040804	0.428312
O91	O	0.839098	-0.071382	0.581671
H92	H	0.792668	-0.079333	0.617590
O93	O	0.724022	0.348850	0.174880
H94	H	0.753557	0.410401	0.138952
H95	H	0.149601	0.374676	-0.000246
H96	H	0.596567	0.386649	-0.000173
H97	H	0.018151	0.371151	-0.000266
O98	O	0.724084	0.348907	0.824759
H99	H	0.731955	0.334382	0.886170
O100	O	0.724072	0.348880	0.660973
H101	H	0.753607	0.410428	0.625044
H102	H	0.465117	0.383125	-0.000187
H103	H	0.917016	-0.245379	0.073906
O104	O	0.826144	-0.209294	0.141746
H105	H	0.782710	-0.136390	0.126048
H106	H	0.906278	0.012033	0.671318
O107	O	0.803627	0.409413	0.581678
H108	H	0.797683	0.489827	0.541038
O109	O	0.384336	0.355194	0.090993
H110	H	0.342853	0.415795	0.121505
H111	H	0.244859	0.328035	0.079348
H112	H	0.177565	-0.045090	-0.000247
