data_functionalizedCrystal
_audit_creation_method	'MofGen! by Chris Wilmer'
_symmetry_space_group_name_H-M	'P1'
_symmetry_Int_Tables_number	1
_symmetry_cell_setting	triclinic
loop_
_symmetry_equiv_pos_as_xyz
  x,y,z
_cell_length_a	16.120297
_cell_length_b	17.077404
_cell_length_c	17.077402
_cell_angle_alpha	89.971676
_cell_angle_beta	87.129208
_cell_angle_gamma	92.883120
loop_
_atom_site_label
_atom_site_type_symbol
_atom_site_fract_x
_atom_site_fract_y
_atom_site_fract_z
Zn1	Zn	-0.471264	1.177556	0.334916
Zn2	Zn	-0.331850	1.184119	0.459528
Zn3	Zn	-0.331880	1.052942	0.328294
Zn4	Zn	-0.471229	1.046258	0.466154
O5	O	-0.401556	1.115219	0.397223
O6	O	-0.452773	1.288273	0.351444
O7	O	-0.215191	1.172262	0.436575
O8	O	-0.350398	1.069523	0.219327
O9	O	-0.350346	1.293095	0.442996
O10	O	-0.452803	1.161077	0.224192
O11	O	-0.215213	1.075887	0.340158
O12	O	-0.350363	0.942209	0.346584
O13	O	-0.587897	1.058130	0.454290
O14	O	-0.452741	0.937298	0.447869
O15	O	-0.587923	1.154595	0.357869
O16	O	-0.350311	1.165780	0.570253
O17	O	-0.452712	1.064494	0.575121
C18	C	-0.401552	0.911271	0.397227
C19	C	-0.401570	0.824020	0.397249
C20	C	-0.619005	1.104885	0.407557
C21	C	-0.711669	1.100481	0.411961
C22	C	-0.401523	1.115145	0.601170
C23	C	-0.401536	1.115183	0.688420
C24	C	-0.881327	1.092413	0.419984
C25	C	-0.922636	1.138179	0.374228
C26	C	-1.017040	1.133690	0.378691
C27	C	-0.786915	1.096901	0.415521
C28	C	-0.184953	1.125557	0.386873
C29	C	-0.092289	1.130113	0.382248
C30	C	-0.401560	1.319963	0.397220
C31	C	-0.401562	1.407212	0.397218
C32	C	-0.454889	1.445693	0.349554
C33	C	-0.454895	1.527674	0.349563
C34	C	-0.401569	1.571172	0.397233
C35	C	-0.348239	1.532685	0.444902
C36	C	-0.348238	1.450706	0.444897
C37	C	-0.348243	1.703555	0.444909
C38	C	-0.348243	1.785539	0.444913
C39	C	-0.454900	1.780522	0.349575
C40	C	-0.454899	1.698543	0.349569
C41	C	-0.401568	1.660063	0.397238
C42	C	-0.401607	1.115314	0.192481
C43	C	-0.401629	1.115354	0.105233
C44	C	-0.348273	1.167971	0.726852
C45	C	-0.348295	1.168009	0.808833
C46	C	-0.401575	1.115254	0.852381
C47	C	-0.454844	1.062463	0.813944
C48	C	-0.454826	1.062430	0.731964
C49	C	-0.454876	1.062534	0.984815
C50	C	-0.454892	1.062566	1.066801
C51	C	-0.348344	1.168113	1.061685
C52	C	-0.348326	1.168080	0.979705
C53	C	-0.401594	1.115288	0.941273
H54	H	-0.887103	1.180733	0.331701
N55	N	-0.509381	1.566968	0.300878
N56	N	-0.556991	1.528122	0.258321
H57	H	-0.595478	1.555872	0.223938
N58	N	-0.293834	1.221849	0.682373
N59	N	-0.216904	1.220358	0.687912
H60	H	-0.178454	1.258411	0.656500
N61	N	-0.925908	1.039035	0.473324
N62	N	-1.003644	1.035422	0.476916
H63	H	-1.035140	0.997726	0.514588
N64	N	-0.509382	1.654114	0.300886
N65	N	-0.562501	1.605831	0.331026
H66	H	-0.600982	1.574453	0.296643
H67	H	-0.498309	1.410283	0.310731
N68	N	-0.509367	1.819838	0.300881
N69	N	-0.509363	1.893033	0.300890
H70	H	-0.547825	1.920804	0.266498
H71	H	-0.304937	1.211033	0.944248
H72	H	-0.304822	1.820953	0.483732
H73	H	-0.304974	1.211101	1.092980
H74	H	-0.304823	1.568107	0.483719
N75	N	-0.293766	1.664258	0.493609
N76	N	-0.246155	1.703102	0.536166
H77	H	-0.207678	1.675350	0.570558
N78	N	-0.293764	1.411408	0.493593
N79	N	-0.246155	1.450252	0.536153
H80	H	-0.207683	1.422499	0.570550
H81	H	-0.304922	1.210994	0.840121
N82	N	-0.509316	1.008670	1.111273
N83	N	-0.556874	0.961540	1.076952
H84	H	-0.595311	0.923473	1.108361
N85	N	-0.509298	1.008609	0.945570
N86	N	-0.556866	0.961509	0.984458
H87	H	-0.595300	0.923424	0.956741
H88	H	-0.498229	1.019512	0.849407
H89	H	-0.498199	1.019445	0.700674
