data_functionalizedCrystal
_audit_creation_method	'MofGen! by Chris Wilmer'
_symmetry_space_group_name_H-M	'P1'
_symmetry_Int_Tables_number	1
_symmetry_cell_setting	triclinic
loop_
_symmetry_equiv_pos_as_xyz
  x,y,z
_cell_length_a	17.699077
_cell_length_b	12.811415
_cell_length_c	16.176319
_cell_angle_alpha	84.562354
_cell_angle_beta	89.993140
_cell_angle_gamma	83.663755
loop_
_atom_site_label
_atom_site_type_symbol
_atom_site_fract_x
_atom_site_fract_y
_atom_site_fract_z
O1	O	1.004676	0.132702	-0.078683
O2	O	0.784375	0.149978	-0.079982
O3	O	0.900067	-0.011467	-0.067872
O4	O	0.888984	0.294147	-0.090792
O5	O	0.900051	-0.011478	0.069621
O6	O	0.784359	0.149967	0.057512
O7	O	1.004660	0.132692	0.058811
Cu8	Cu	0.894508	0.141329	0.070716
Cu9	Cu	0.894527	0.141341	-0.091886
O10	O	0.888968	0.294137	0.046702
C11	C	0.756167	0.149355	-0.011189
C12	C	0.672140	0.147501	-0.011051
C13	C	0.632660	0.146622	0.063963
C14	C	0.553710	0.144863	0.064096
C15	C	0.514240	0.143991	-0.010787
C16	C	0.553726	0.144867	-0.085807
C17	C	0.632676	0.146618	-0.085938
C18	C	0.235331	0.137804	-0.085279
C19	C	0.156376	0.136056	-0.085142
C20	C	0.156365	0.136049	0.064755
C21	C	0.235315	0.137800	0.064624
C22	C	0.274794	0.138670	-0.010395
C23	C	0.360401	0.140575	-0.010538
C24	C	0.428634	0.142094	-0.010646
C25	C	0.899438	-0.050575	0.003805
C26	C	0.897577	-0.167089	0.012538
C27	C	0.894084	-0.386008	-0.120966
C28	C	0.892336	-0.495483	-0.112765
C29	C	0.892326	-0.495516	0.037140
C30	C	0.894075	-0.386040	0.028939
C31	C	0.894955	-0.331291	-0.050117
C32	C	0.896709	-0.221815	-0.058317
C33	C	0.896694	-0.221848	0.091587
C34	C	0.894945	-0.331323	0.099788
C35	C	1.032868	0.133315	-0.009983
C36	C	1.116895	0.135169	-0.010126
C37	C	0.889597	0.333245	-0.024977
C38	C	0.891458	0.449759	-0.033715
N39	N	0.894500	0.141320	0.185082
N40	N	0.894541	0.141342	-0.206252
C41	C	0.945744	0.069861	0.233706
C42	C	0.945748	0.069860	0.320253
C43	C	0.894511	0.141323	0.358174
C44	C	0.843261	0.212785	0.309544
C45	C	0.843254	0.212781	0.222999
C46	C	0.843287	0.212805	0.658571
C47	C	0.843300	0.212806	0.745122
C48	C	0.945781	0.069884	0.755825
C49	C	0.945774	0.069879	0.669280
C50	C	0.894522	0.141337	0.620658
C51	C	0.894518	0.141336	0.526814
C52	C	0.894518	0.141330	0.452016
H53	H	0.124242	0.135345	-0.146124
H54	H	0.267466	0.138509	-0.146364
H55	H	0.897405	-0.177286	0.149278
H56	H	0.894226	-0.375914	0.164153
H57	H	0.891604	-0.540110	0.101503
O58	O	0.273750	0.138504	0.137324
C59	C	0.327692	0.048634	0.148553
H60	H	0.342289	0.018611	0.085729
H61	H	0.381343	0.070294	0.178650
H62	H	0.303066	-0.015674	0.190360
O63	O	0.995546	0.000339	0.197009
C64	C	1.040787	-0.062715	0.258487
H65	H	1.009758	-0.063841	0.320271
H66	H	1.052070	-0.146561	0.239776
H67	H	1.097116	-0.028734	0.265128
H68	H	0.521584	0.144150	-0.146778
H69	H	0.664819	0.147336	-0.147023
H70	H	0.987474	0.011672	0.359843
H71	H	0.124212	0.135335	0.125840
H72	H	0.894807	-0.341432	-0.185336
H73	H	0.897427	-0.177240	-0.122688
O74	O	0.995574	0.000358	0.632580
C75	C	1.040817	-0.062699	0.694055
H76	H	1.009791	-0.063827	0.755841
H77	H	1.052098	-0.146544	0.675342
H78	H	1.097147	-0.028720	0.700693
H79	H	0.987511	0.011696	0.795423
H80	H	0.801573	0.271003	0.775996
O81	O	0.671094	0.147329	0.136664
C82	C	0.725038	0.057461	0.147896
H83	H	0.739637	0.027436	0.085074
H84	H	0.778687	0.079125	0.177995
H85	H	0.700412	-0.006847	0.189704
O86	O	0.793479	0.282323	0.611467
C87	C	0.748249	0.345381	0.663500
H88	H	0.779292	0.346513	0.725098
H89	H	0.736961	0.429225	0.632204
H90	H	0.691923	0.311400	0.675274
O91	O	0.891519	-0.548479	-0.181674
C92	C	0.892644	-0.476671	-0.253205
H93	H	0.917831	-0.403049	-0.236753
H94	H	0.928831	-0.515050	-0.302759
H95	H	0.832182	-0.453846	-0.277945
H96	H	0.801525	0.270968	0.183410
O97	O	0.793457	0.282060	0.346482
C98	C	0.746586	0.225931	0.400756
H99	H	0.776475	0.143746	0.419884
H100	H	0.734757	0.269765	0.458327
H101	H	0.690625	0.218897	0.367946
O102	O	0.515471	0.144064	0.137035
C103	C	0.567239	0.145192	0.203101
H104	H	0.620488	0.179657	0.178539
H105	H	0.539775	0.195625	0.251735
H106	H	0.583314	0.061207	0.232451
