data_functionalizedCrystal
_audit_creation_method	'MofGen! by Chris Wilmer'
_symmetry_space_group_name_H-M	'P1'
_symmetry_Int_Tables_number	1
_symmetry_cell_setting	triclinic
loop_
_symmetry_equiv_pos_as_xyz
  x,y,z
_cell_length_a	19.288867
_cell_length_b	18.366186
_cell_length_c	19.288859
_cell_angle_alpha	89.994011
_cell_angle_beta	96.864603
_cell_angle_gamma	90.007559
loop_
_atom_site_label
_atom_site_type_symbol
_atom_site_fract_x
_atom_site_fract_y
_atom_site_fract_z
O1	O	-0.921350	-0.060524	0.086656
O2	O	-0.421350	0.439476	0.586656
O3	O	-0.719089	-0.060531	0.098343
O4	O	-0.219089	0.439469	0.598343
O5	O	-0.826066	-0.060523	-0.008631
O6	O	-0.326066	0.439477	0.491369
O7	O	-0.814373	-0.060532	0.193630
O8	O	-0.314373	0.439468	0.693630
O9	O	-0.826048	0.060577	-0.008637
O10	O	-0.326048	0.560577	0.491363
O11	O	-0.719071	0.060569	0.098338
O12	O	-0.219071	0.560569	0.598338
O13	O	-0.921332	0.060576	0.086650
O14	O	-0.421332	0.560576	0.586650
Zn15	Zn	-0.820199	0.079799	0.092493
Zn16	Zn	-0.320199	0.579799	0.592493
Zn17	Zn	-0.820222	-0.079754	0.092500
Zn18	Zn	-0.320222	0.420246	0.592500
O19	O	-0.814355	0.060568	0.193625
O20	O	-0.314355	0.560568	0.693625
C21	C	-0.693204	0.000018	0.097964
C22	C	-0.193204	0.500018	0.597964
C23	C	-0.616100	0.000015	0.096834
C24	C	-0.116100	0.500015	0.596834
C25	C	-0.825682	0.000026	-0.034511
C26	C	-0.325682	0.500026	0.465489
C27	C	-0.824554	0.000025	-0.111614
C28	C	-0.324554	0.500025	0.388386
C29	C	-0.947217	0.000025	0.087029
C30	C	-0.447217	0.500025	0.587029
C31	C	-1.024321	0.000023	0.088159
C32	C	-0.524321	0.500023	0.588159
C33	C	-0.060545	-0.065987	0.088701
C34	C	0.439455	0.434013	0.588701
C35	C	-0.132992	-0.065990	0.089758
C36	C	0.367008	0.434010	0.589758
C37	C	-0.169211	0.000021	0.090287
C38	C	0.330789	0.500021	0.590287
C39	C	-0.132979	0.066040	0.089741
C40	C	0.367021	0.566040	0.589741
C41	C	-0.060534	0.066041	0.088677
C42	C	0.439466	0.566041	0.588677
C43	C	-0.278530	0.050593	0.132653
C44	C	0.221470	0.550593	0.632653
C45	C	-0.350973	0.050589	0.133721
C46	C	0.149027	0.550589	0.633721
C47	C	-0.392657	0.000021	0.093566
C48	C	0.107343	0.500021	0.593566
C49	C	-0.361887	-0.050555	0.052352
C50	C	0.138113	0.449445	0.552352
C51	C	-0.289442	-0.050554	0.051288
C52	C	0.210558	0.449446	0.551288
C53	C	-0.247766	0.000028	0.091441
C54	C	0.252234	0.500028	0.591441
C55	C	-0.507437	-0.065996	0.095254
C56	C	-0.007437	0.434004	0.595254
C57	C	-0.579886	-0.065996	0.096307
C58	C	-0.079886	0.434004	0.596307
C59	C	-0.579870	0.066035	0.096296
C60	C	-0.079870	0.566035	0.596296
C61	C	-0.507423	0.066034	0.095237
C62	C	-0.007423	0.566034	0.595237
C63	C	-0.471210	0.000016	0.094719
C64	C	0.028790	0.500016	0.594719
N65	N	-0.820187	0.188690	0.092488
N66	N	-0.320187	0.688690	0.592488
N67	N	-0.820239	-0.188646	0.092500
N68	N	-0.320239	0.311354	0.592500
C69	C	-0.867572	0.226794	0.045143
C70	C	-0.367572	0.726794	0.545143
C71	C	-0.867577	0.303022	0.045140
C72	C	-0.367577	0.803022	0.545140
C73	C	-0.820203	0.341143	0.092494
C74	C	-0.320203	0.841143	0.592494
C75	C	-0.772809	0.303030	0.139842
C76	C	-0.272809	0.803030	0.639842
C77	C	-0.772801	0.226804	0.139839
C78	C	-0.272801	0.726804	0.639839
C79	C	-0.810903	0.461900	0.155782
C80	C	-0.310903	0.961900	0.655782
C81	C	-0.810916	0.538125	0.155785
C82	C	-0.310916	1.038125	0.655785
C83	C	-0.820222	0.576251	0.092502
C84	C	-0.320222	1.076251	0.592502
C85	C	-0.829531	0.538142	0.029213
C86	C	-0.329531	1.038142	0.529213
C87	C	-0.829524	0.461915	0.029210
C88	C	-0.329524	0.961915	0.529210
C89	C	-0.820205	0.423798	0.092502
C90	C	-0.320205	0.923798	0.592502
C91	C	-0.867615	0.697010	0.045150
C92	C	-0.367615	1.197010	0.545150
C93	C	-0.867614	0.773239	0.045146
C94	C	-0.367614	1.273239	0.545146
C95	C	-0.772850	0.773245	0.139855
C96	C	-0.272850	1.273245	0.639855
C97	C	-0.772847	0.697017	0.139853
C98	C	-0.272847	1.197017	0.639853
C99	C	-0.820233	0.658904	0.092501
C100	C	-0.320233	1.158904	0.592501
C101	C	-0.879698	0.000008	-0.675655
C102	C	-0.379698	0.500008	-0.175655
C103	C	-0.880763	0.000014	-0.603208
C104	C	-0.380763	0.500014	-0.103208
C105	C	-0.817994	0.000012	-0.558502
C106	C	-0.317994	0.500012	-0.058502
C107	C	-0.754154	0.000022	-0.586247
C108	C	-0.254154	0.500022	-0.086247
C109	C	-0.753091	0.000022	-0.658693
C110	C	-0.253091	0.500022	-0.158693
C111	C	-0.771187	-0.042415	-0.437227
C112	C	-0.271187	0.457585	0.062773
C113	C	-0.772253	-0.042420	-0.364783
C114	C	-0.272253	0.457580	0.135217
C115	C	-0.821271	0.000013	-0.335056
C116	C	-0.321271	0.500013	0.164944
C117	C	-0.869235	0.042442	-0.377783
C118	C	-0.369235	0.542442	0.122217
C119	C	-0.868171	0.042442	-0.450228
C120	C	-0.368171	0.542442	0.049772
C121	C	-0.819140	0.000012	-0.479946
C122	C	-0.319140	0.500012	0.020054
C123	C	-0.886261	0.000015	-0.228764
C124	C	-0.386261	0.500015	0.271236
C125	C	-0.887324	0.000026	-0.156316
C126	C	-0.387324	0.500026	0.343684
C127	C	-0.760714	0.000026	-0.139356
C128	C	-0.260714	0.500026	0.360644
C129	C	-0.759653	0.000023	-0.211803
C130	C	-0.259653	0.500023	0.288197
C131	C	-0.822429	0.000014	-0.256503
C132	C	-0.322429	0.500014	0.243497
C133	C	-0.814739	0.000017	0.219504
C134	C	-0.314739	0.500017	0.719504
C135	C	-0.815867	0.000013	0.296608
C136	C	-0.315867	0.500013	0.796608
H137	H	-0.031065	-0.119744	0.088276
H138	H	0.468935	0.380256	0.588276
H139	H	-0.264392	-0.091734	0.017728
H140	H	0.235608	0.408266	0.517728
Br141	Br	-0.708538	0.645299	0.204112
Br142	Br	-0.208538	1.145299	0.704112
Br143	Br	-0.842171	0.589873	-0.056678
Br144	Br	-0.342171	1.089873	0.443322
H145	H	-0.907224	0.076991	-0.485014
H146	H	-0.407224	0.576991	0.014986
Br147	Br	-0.708488	0.175087	0.204098
Br148	Br	-0.208488	0.675087	0.704098
Br149	Br	-0.931921	0.645282	-0.019114
Br150	Br	-0.431921	1.145282	0.480886
H151	H	-0.477929	0.119786	0.094798
H152	H	0.022071	0.619786	0.594798
Br153	Br	-0.708510	0.354763	0.204104
Br154	Br	-0.208510	0.854763	0.704104
H155	H	-0.837102	0.430890	-0.022322
H156	H	-0.337102	0.930890	0.477678
Br157	Br	-0.964893	0.000002	-0.736316
Br158	Br	-0.464893	0.500002	-0.236316
H159	H	-0.906199	0.804264	0.006588
H160	H	-0.406199	1.304264	0.506588
Br161	Br	-0.935768	0.100029	-0.337450
Br162	Br	-0.435768	0.600029	0.162550
Br163	Br	-0.931889	0.354744	-0.019120
Br164	Br	-0.431889	0.854744	0.480880
Br165	Br	-0.011368	0.155633	0.087942
Br166	Br	0.488632	0.655633	0.587942
H167	H	-0.376018	0.091756	0.167297
H168	H	0.123982	0.591756	0.667297
H169	H	-0.803340	0.569148	0.207319
H170	H	-0.303340	1.069148	0.707319
H171	H	-0.609359	0.119783	0.096725
H172	H	-0.109359	0.619783	0.596725
H173	H	-0.703047	0.000022	-0.549843
H174	H	-0.203047	0.500022	-0.049843
H175	H	-0.395824	-0.091734	0.019656
H176	H	0.104176	0.408266	0.519656
Br177	Br	-0.708549	0.824974	0.204114
Br178	Br	-0.208549	1.324974	0.704114
H179	H	-0.244597	0.091779	0.165348
H180	H	0.255403	0.591779	0.665348
H181	H	-0.932743	0.000010	-0.580619
H182	H	-0.432743	0.500010	-0.080619
H183	H	-0.162473	0.119787	0.090170
H184	H	0.337527	0.619787	0.590170
Br185	Br	-0.182165	-0.155581	0.090494
Br186	Br	0.317835	0.344419	0.590494
H187	H	-0.803312	0.430865	0.207318
H188	H	-0.303312	0.930865	0.707318
Br189	Br	-0.931877	0.175069	-0.019120
Br190	Br	-0.431877	0.675069	0.480880
Br191	Br	-0.971455	0.000005	-0.289432
Br192	Br	-0.471455	0.500005	0.210568
Br193	Br	-0.973960	0.000018	-0.118671
Br194	Br	-0.473960	0.500018	0.381329
H195	H	-0.709606	0.000031	-0.102957
H196	H	-0.209606	0.500031	0.397043
Br197	Br	-0.458287	-0.155589	0.094547
Br198	Br	0.041713	0.344411	0.594547
H199	H	-0.707675	0.000022	-0.234387
H200	H	-0.207675	0.500022	0.265613
Br201	Br	-0.629051	-0.155590	0.097032
Br202	Br	-0.129051	0.344410	0.597032
Br203	Br	-0.707169	-0.100010	-0.306805
Br204	Br	-0.207169	0.399990	0.193195
Br205	Br	-0.704651	-0.100000	-0.477561
Br206	Br	-0.204651	0.400000	0.022439
Br207	Br	-0.666456	0.000031	-0.696340
Br208	Br	-0.166456	0.500031	-0.196340
