data_functionalizedCrystal
_audit_creation_method	'MofGen! by Chris Wilmer'
_symmetry_space_group_name_H-M	'P1'
_symmetry_Int_Tables_number	1
_symmetry_cell_setting	triclinic
loop_
_symmetry_equiv_pos_as_xyz
  x,y,z
_cell_length_a	16.109302
_cell_length_b	14.853559
_cell_length_c	15.186229
_cell_angle_alpha	89.998446
_cell_angle_beta	89.994701
_cell_angle_gamma	83.546617
loop_
_atom_site_label
_atom_site_type_symbol
_atom_site_fract_x
_atom_site_fract_y
_atom_site_fract_z
O1	O	1.103290	0.115884	-0.073264
O2	O	0.861248	0.130305	-0.073256
O3	O	0.988738	-0.008146	-0.073259
O4	O	0.975800	0.254335	-0.073261
O5	O	0.988729	-0.008148	0.073198
O6	O	0.861239	0.130303	0.073201
O7	O	1.103281	0.115882	0.073193
Zn8	Zn	0.982259	0.123092	0.096450
Zn9	Zn	0.982270	0.123095	-0.096513
O10	O	0.975791	0.254334	0.073196
C11	C	0.830268	0.129720	-0.000027
C12	C	0.737970	0.127968	-0.000024
C13	C	0.525619	0.123917	0.079801
C14	C	0.438897	0.122261	0.079798
C15	C	0.438916	0.122268	-0.079878
C16	C	0.525638	0.123917	-0.079874
C17	C	0.568986	0.124746	-0.000032
C18	C	0.395543	0.121441	-0.000039
C19	C	0.301514	0.119646	-0.000043
C20	C	0.663021	0.126539	-0.000028
C21	C	0.988149	-0.041735	-0.000032
C22	C	0.986396	-0.141816	-0.000037
C23	C	0.978964	-0.564978	-0.079871
C24	C	0.978954	-0.564975	0.079802
C25	C	0.980608	-0.470944	0.079803
C26	C	0.981439	-0.423926	-0.000034
C27	C	0.980615	-0.470939	-0.079873
C28	C	0.981423	-0.423924	0.159640
C29	C	0.983076	-0.329887	0.159644
C30	C	0.983913	-0.282868	0.079805
C31	C	0.983090	-0.329887	-0.000036
C32	C	0.983921	-0.282868	-0.079874
C33	C	0.983104	-0.329886	-0.159716
C34	C	0.981452	-0.423920	-0.159711
C35	C	0.985565	-0.188835	0.079800
C36	C	0.985572	-0.188829	-0.079875
C37	C	1.134261	0.116467	-0.000038
C38	C	1.226559	0.118219	-0.000046
C39	C	0.976380	0.287922	-0.000032
C40	C	0.978133	0.388004	-0.000033
N41	N	0.982257	0.123090	0.228143
N42	N	0.982278	0.123090	-0.228206
C43	C	1.038729	0.061804	0.453865
C44	C	1.038732	0.061802	0.546054
C45	C	0.925800	0.184378	0.546066
C46	C	0.925794	0.184376	0.453878
C47	C	0.982264	0.123090	0.407780
C48	C	0.982272	0.123090	0.592157
C49	C	0.982274	0.123089	0.692114
C50	C	0.982260	0.123090	0.307817
H51	H	0.403611	0.121594	-0.144882
C52	C	1.100847	-0.005610	0.596749
C53	C	1.162965	-0.073012	0.546040
C54	C	1.225082	-0.140427	0.596735
C55	C	1.225081	-0.140441	0.698138
C56	C	1.162961	-0.073037	0.748852
C57	C	1.100843	-0.005621	0.698158
H58	H	1.162968	-0.073004	0.470971
H59	H	1.271068	-0.190325	0.559193
H60	H	1.271064	-0.190347	0.735665
H61	H	1.162958	-0.073045	0.823922
H62	H	1.054858	0.044276	0.735700
H63	H	0.403591	0.121586	0.144806
H64	H	0.560949	0.124590	-0.144887
H65	H	0.879826	0.234277	0.583608
H66	H	0.983774	-0.291590	-0.224720
H67	H	0.879809	0.234282	0.416353
H68	H	0.978302	-0.603264	-0.144877
H69	H	0.980786	-0.462209	-0.224715
H70	H	0.560911	0.124592	0.144814
C71	C	0.986485	-0.137112	-0.167700
C72	C	1.058402	-0.160301	-0.233565
C73	C	1.059315	-0.108584	-0.321390
C74	C	0.988312	-0.033679	-0.343349
C75	C	0.916390	-0.010487	-0.277483
C76	C	0.915477	-0.062203	-0.189658
H77	H	1.110967	-0.215753	-0.217311
H78	H	1.112557	-0.125753	-0.370148
H79	H	0.988988	0.004604	-0.408362
H80	H	0.863825	0.044966	-0.293737
H81	H	0.862235	-0.045034	-0.140900
C82	C	0.978032	-0.616703	0.167613
C83	C	0.904751	-0.671086	0.189553
C84	C	0.903826	-0.722823	0.277364
C85	C	0.976182	-0.720178	0.343236
C86	C	1.049469	-0.665794	0.321297
C87	C	1.050394	-0.614056	0.233486
H88	H	0.851183	-0.673045	0.140789
H89	H	0.849574	-0.763082	0.293604
H90	H	0.975498	-0.758478	0.408239
H91	H	1.103037	-0.663834	0.370061
H92	H	1.104646	-0.573797	0.217246
C93	C	0.980495	-0.475662	0.247444
C94	C	0.907215	-0.530055	0.269362
C95	C	0.906282	-0.581808	0.357164
C96	C	0.978629	-0.579169	0.423048
C97	C	1.051915	-0.524774	0.401132
C98	C	1.052848	-0.473021	0.313330
H99	H	0.853654	-0.532010	0.220589
H100	H	0.852030	-0.622074	0.373387
H101	H	0.977938	-0.617479	0.488044
H102	H	1.105475	-0.522819	0.449905
H103	H	1.107099	-0.432755	0.297106
H104	H	0.986211	-0.150555	0.144807
C105	C	0.983987	-0.278177	0.247468
C106	C	0.911623	-0.280842	0.313342
C107	C	0.912539	-0.229132	0.401166
C108	C	0.985817	-0.174756	0.423117
C109	C	1.058186	-0.172088	0.357242
C110	C	1.057271	-0.223799	0.269417
H111	H	0.857373	-0.321096	0.297094
H112	H	0.858966	-0.231107	0.449931
H113	H	0.986495	-0.136476	0.488130
H114	H	1.112437	-0.131834	0.373489
H115	H	1.110844	-0.221824	0.220652
H116	H	1.084708	0.011900	0.416334
