data_functionalizedCrystal
_audit_creation_method	'MofGen! by Chris Wilmer'
_symmetry_space_group_name_H-M	'P1'
_symmetry_Int_Tables_number	1
_symmetry_cell_setting	triclinic
loop_
_symmetry_equiv_pos_as_xyz
  x,y,z
_cell_length_a	12.759395
_cell_length_b	12.759394
_cell_length_c	8.497374
_cell_angle_alpha	90.006788
_cell_angle_beta	90.002089
_cell_angle_gamma	90.015329
loop_
_atom_site_label
_atom_site_type_symbol
_atom_site_fract_x
_atom_site_fract_y
_atom_site_fract_z
Zn1	Zn	1.606069	-0.418429	0.891990
Zn2	Zn	1.606019	-0.594076	0.628200
Zn3	Zn	1.430426	-0.418414	0.628215
Zn4	Zn	1.430359	-0.594069	0.891930
O5	O	1.518218	-0.506247	0.760084
O6	O	1.753083	-0.441739	0.857016
O7	O	1.582733	-0.570771	0.407440
O8	O	1.453774	-0.271395	0.663237
O9	O	1.753046	-0.570786	0.663211
O10	O	1.582818	-0.271406	0.857031
O11	O	1.453726	-0.441712	0.407451
O12	O	1.283396	-0.441705	0.663179
O13	O	1.453660	-0.570774	1.112700
O14	O	1.283347	-0.570758	0.856929
O15	O	1.582753	-0.441732	1.112744
O16	O	1.582668	-0.741096	0.663153
O17	O	1.453612	-0.741091	0.856914
C18	C	1.245251	-0.506230	0.760050
C19	C	1.128474	-0.506248	0.760073
C20	C	0.909038	-0.640873	0.961559
C21	C	0.963904	-0.708163	1.062264
C22	C	1.073625	-0.708150	1.062244
C23	C	1.128484	-0.640842	0.961504
C24	C	1.073618	-0.573552	0.860798
C25	C	0.963894	-0.573569	0.860833
C26	C	1.073608	-0.438958	0.659368
C27	C	0.963887	-0.438964	0.659394
C28	C	1.128467	-0.371650	0.558628
C29	C	1.073601	-0.304353	0.457928
C30	C	0.963873	-0.304367	0.457954
C31	C	0.909021	-0.371674	0.558688
C32	C	1.518156	-0.779215	0.760060
C33	C	1.518226	-0.895991	0.760102
C34	C	1.652835	-1.115367	0.558555
C35	C	1.720053	-1.060471	0.457738
C36	C	1.719998	-0.950749	0.457707
C37	C	1.652716	-0.895921	0.558500
C38	C	1.585498	-0.950817	0.659317
C39	C	1.585562	-1.060541	0.659340
C40	C	1.451008	-0.950887	0.860919
C41	C	1.451066	-1.060609	0.860961
C42	C	1.383725	-0.896059	0.961712
C43	C	1.316511	-0.950955	1.062539
C44	C	1.316569	-1.060683	1.062567
C45	C	1.383848	-1.115504	0.961777
C46	C	1.792252	-0.506265	0.760118
C47	C	1.909028	-0.506272	0.760133
C48	C	1.518210	-0.506249	1.171564
C49	C	1.518213	-0.506260	1.350208
C50	C	1.518309	-0.232214	0.760142
C51	C	1.518348	-0.115437	0.760167
H52	H	1.217825	-0.640846	0.961482
C53	C	1.779840	-1.228639	0.368221
C54	C	1.793988	-1.120740	0.346920
H55	H	1.825482	-1.265841	0.299800
H56	H	1.709273	-1.246665	0.345071
H57	H	1.795188	-1.246589	0.474236
H58	H	1.778632	-1.102789	0.240907
H59	H	1.864571	-1.102707	0.370059
H60	H	0.819697	-0.640879	0.961601
C61	C	1.410633	-1.272635	1.111921
C62	C	1.383916	-1.236112	0.961807
H63	H	1.410682	-1.347094	1.111927
H64	H	1.360944	-1.247847	1.186357
H65	H	1.478403	-1.247746	1.139271
H66	H	1.316143	-1.260995	0.934461
H67	H	1.433608	-1.260911	0.887347
C68	C	1.138548	-0.917301	1.139158
C69	C	1.242563	-0.890690	1.173326
H70	H	1.092899	-0.880088	1.207554
H71	H	1.128973	-0.990494	1.153617
H72	H	1.123228	-0.899350	1.033134
H73	H	1.257886	-0.908648	1.279347
H74	H	1.252143	-0.817480	1.158880
C75	C	1.241793	-0.244578	0.368448
C76	C	1.133902	-0.230373	0.347207
H77	H	1.279021	-0.198899	0.300099
H78	H	1.259749	-0.315134	0.345164
H79	H	1.259782	-0.229316	0.474486
H80	H	1.115911	-0.245642	0.241172
H81	H	1.115939	-0.159801	0.370481
H82	H	0.919226	-0.762966	1.144280
H83	H	1.118297	-0.762946	1.144243
H84	H	1.774729	-0.906053	0.375607
H85	H	1.652896	-1.204708	0.558585
H86	H	1.652669	-0.806580	0.558452
C87	C	0.751808	-0.398322	0.408612
C88	C	0.788413	-0.371694	0.558736
H89	H	0.677349	-0.398332	0.408649
H90	H	0.776617	-0.466081	0.381165
H91	H	0.776619	-0.348600	0.334213
H92	H	0.763608	-0.421421	0.633133
H93	H	0.763594	-0.303925	0.586201
H94	H	1.383682	-0.806718	0.961673
H95	H	1.217808	-0.371649	0.558611
H96	H	1.261833	-1.105373	1.144667
H97	H	0.919208	-0.249572	0.375946
