data_functionalizedCrystal
_audit_creation_method	'MofGen! by Chris Wilmer'
_symmetry_space_group_name_H-M	'P1'
_symmetry_Int_Tables_number	1
_symmetry_cell_setting	triclinic
loop_
_symmetry_equiv_pos_as_xyz
  x,y,z
_cell_length_a	10.723023
_cell_length_b	15.995350
_cell_length_c	9.198806
_cell_angle_alpha	89.999047
_cell_angle_beta	89.996513
_cell_angle_gamma	83.979961
loop_
_atom_site_label
_atom_site_type_symbol
_atom_site_fract_x
_atom_site_fract_y
_atom_site_fract_z
O1	O	1.655690	0.117432	-0.120870
O2	O	2.155690	0.617432	0.379130
O3	O	1.292394	0.128673	-0.120875
O4	O	1.792394	0.628673	0.379125
O5	O	1.483973	0.001222	-0.120871
O6	O	1.983973	0.501222	0.379129
O7	O	1.464111	0.244883	-0.120874
O8	O	1.964111	0.744883	0.379126
O9	O	1.483958	0.001221	0.120914
O10	O	1.983958	0.501221	0.620914
O11	O	1.292379	0.128673	0.120910
O12	O	1.792379	0.628673	0.620910
O13	O	1.655675	0.117431	0.120915
O14	O	2.155675	0.617431	0.620915
Cu15	Cu	1.474026	0.123052	0.142990
Cu16	Cu	1.974026	0.623052	0.642990
Cu17	Cu	1.474044	0.123052	-0.142949
Cu18	Cu	1.974044	0.623052	0.357051
O19	O	1.464096	0.244883	0.120911
O20	O	1.964096	0.744883	0.620911
C21	C	1.245898	0.127855	0.000017
C22	C	1.745898	0.627855	0.500017
C23	C	1.107374	0.125408	0.000014
C24	C	1.607374	0.625408	0.500014
C25	C	1.045608	0.124316	0.125265
C26	C	1.545608	0.624316	0.625265
C27	C	0.902438	0.121787	0.125266
C28	C	1.402438	0.621787	0.625266
C29	C	1.483144	-0.029978	0.000019
C30	C	1.983144	0.470022	0.500019
C31	C	1.480683	-0.122942	0.000011
C32	C	1.980683	0.377058	0.500011
C33	C	1.471842	-0.460741	0.000015
C34	C	1.971842	0.039259	0.500015
C35	C	1.335403	-0.414090	-0.000529
C36	C	1.835403	0.085910	0.499471
C37	C	1.337865	-0.317386	0.000016
C38	C	1.837865	0.182614	0.500016
C39	C	1.476227	-0.293155	0.000012
C40	C	1.976227	0.206845	0.500012
C41	C	1.543515	-0.333846	0.138082
C42	C	2.043515	0.166154	0.638082
C43	C	1.540088	-0.430502	0.138197
C44	C	2.040088	0.069498	0.638197
C45	C	1.542923	-0.430843	-0.136758
C46	C	2.042923	0.069157	0.363242
C47	C	1.542891	-0.333898	-0.138582
C48	C	2.042891	0.166102	0.361418
C49	C	1.478713	-0.198443	0.000015
C50	C	1.978713	0.301557	0.500015
C51	C	1.469361	-0.555453	0.000022
C52	C	1.969361	-0.055453	0.500022
C53	C	1.702172	0.118249	0.000020
C54	C	2.202172	0.618249	0.500020
C55	C	1.840695	0.120696	0.000013
C56	C	2.340695	0.620696	0.500013
C57	C	1.464925	0.276082	0.000018
C58	C	1.964925	0.776082	0.500018
C59	C	1.467387	0.369047	0.000017
C60	C	1.967387	0.869047	0.500017
N61	N	1.474022	0.123051	0.344103
N62	N	1.974022	0.623051	0.844103
N63	N	1.474057	0.123047	-0.344063
N64	N	1.974057	0.623047	0.155937
C65	C	1.554464	0.069302	0.416302
C66	C	2.054464	0.569302	0.916302
C67	C	1.554483	0.069299	0.583714
C68	C	2.054483	0.569299	1.083714
H69	H	1.098723	0.125250	0.232496
H70	H	1.598723	0.625250	0.732496
F71	F	1.384039	0.183202	0.574796
F72	F	1.884039	0.683202	1.074796
F73	F	0.833013	0.120567	0.265431
F74	F	1.333013	0.620567	0.765431
F75	F	1.644243	0.009007	0.335104
F76	F	2.144243	0.509007	0.835104
F77	F	0.910109	0.121929	-0.140158
F78	F	1.410109	0.621929	0.359842
F79	F	1.475933	-0.454794	0.273098
F80	F	1.975933	0.045206	0.773098
H81	H	1.640259	-0.462175	0.144459
H82	H	2.140259	0.037825	0.644459
F83	F	1.037959	0.124175	-0.140150
F84	F	1.537959	0.624175	0.359850
H85	H	1.284972	-0.289267	-0.098958
H86	H	1.784972	0.210733	0.401042
F87	F	1.384015	0.183193	0.425302
F88	F	1.884015	0.683193	0.925302
H89	H	1.623357	0.023285	0.645802
H90	H	2.123357	0.523285	1.145802
H91	H	1.280876	-0.432935	-0.099541
H92	H	1.780876	0.067065	0.400459
F93	F	1.264249	-0.440391	0.127811
F94	F	1.764249	0.059609	0.627811
F95	F	1.676381	-0.314622	0.144795
F96	F	2.176381	0.185378	0.644795
F97	F	1.268245	-0.281360	0.129598
F98	F	1.768245	0.218640	0.629598
H99	H	1.496768	-0.305733	0.240831
H100	H	1.996768	0.194267	0.740831
H101	H	1.498321	-0.451639	-0.241406
H102	H	1.998321	0.048361	0.258594
F103	F	1.479083	-0.298260	-0.272107
F104	F	1.979083	0.201740	0.227893
H105	H	1.643791	-0.317957	-0.146922
H106	H	2.143791	0.182043	0.353078
F107	F	1.674408	-0.471602	-0.137978
F108	F	2.174408	0.028398	0.362022
