data_functionalizedCrystal
_audit_creation_method	'MofGen! by Chris Wilmer'
_symmetry_space_group_name_H-M	'P1'
_symmetry_Int_Tables_number	1
_symmetry_cell_setting	triclinic
loop_
_symmetry_equiv_pos_as_xyz
  x,y,z
_cell_length_a	14.853566
_cell_length_b	10.654550
_cell_length_c	13.330367
_cell_angle_alpha	90.001482
_cell_angle_beta	89.997816
_cell_angle_gamma	95.940328
loop_
_atom_site_label
_atom_site_type_symbol
_atom_site_fract_x
_atom_site_fract_y
_atom_site_fract_z
O1	O	1.197244	-0.163948	-0.083357
O2	O	0.934889	-0.183481	-0.083373
O3	O	1.072099	0.009088	-0.083358
O4	O	1.060035	-0.356516	-0.083372
O5	O	1.072085	0.009082	0.083489
O6	O	0.934875	-0.183487	0.083474
O7	O	1.197230	-0.163953	0.083490
Cu8	Cu	1.066051	-0.173720	0.098716
Cu9	Cu	1.066068	-0.173714	-0.098600
O10	O	1.060021	-0.356522	0.083475
C11	C	0.901289	-0.182599	0.000048
C12	C	0.801191	-0.179948	0.000042
C13	C	0.377954	-0.168730	-0.090888
C14	C	0.377959	-0.168737	0.091015
C15	C	0.472007	-0.171227	0.091012
C16	C	0.519032	-0.172470	0.000057
C17	C	0.472009	-0.171224	-0.090894
C18	C	0.519035	-0.172486	0.181961
C19	C	0.613088	-0.174977	0.181962
C20	C	0.660116	-0.176212	0.091006
C21	C	0.613088	-0.174964	0.000051
C22	C	0.660113	-0.176207	-0.090904
C23	C	0.613087	-0.174950	-0.181860
C24	C	0.519037	-0.172458	-0.181850
C25	C	0.754166	-0.178704	0.090996
C26	C	0.754168	-0.178701	-0.090910
C27	C	1.071206	0.055874	0.000065
C28	C	1.068556	0.195289	0.000063
C29	C	1.230831	-0.164835	0.000067
C30	C	1.330929	-0.167487	0.000066
C31	C	1.060913	-0.403308	0.000050
C32	C	1.063564	-0.542723	0.000045
N33	N	1.066046	-0.173724	0.237498
C34	C	1.149343	0.275615	0.000068
C35	C	1.146847	0.406610	0.000055
C36	C	0.982771	0.376941	0.000038
C37	C	0.985267	0.245949	0.000043
N38	N	1.066080	-0.173700	-0.237381
C39	C	1.005281	-0.258968	0.290017
C40	C	1.126816	-0.088476	0.290007
C41	C	1.126826	-0.088471	0.395026
C42	C	1.066061	-0.173714	0.447544
C43	C	1.005286	-0.258963	0.395045
C44	C	1.187592	-0.003216	0.447533
C45	C	1.187603	-0.003207	0.552558
C46	C	1.126842	-0.088457	0.605079
C47	C	1.066066	-0.173710	0.552572
C48	C	1.005301	-0.258953	0.605091
C49	C	0.944529	-0.344213	0.552587
C50	C	0.944525	-0.344213	0.447565
C51	C	1.126845	-0.088456	0.710100
C52	C	1.005306	-0.258948	0.710119
H53	H	0.651386	-0.175971	-0.255915
O54	O	1.233982	0.493248	0.000062
H55	H	1.236754	0.553652	0.068059
O56	O	0.898126	0.159304	0.000050
H57	H	0.858309	0.177330	-0.067952
H58	H	0.955827	-0.328368	0.752874
O59	O	1.192388	0.003482	0.766734
H60	H	1.234642	0.062752	0.712570
O61	O	0.878991	-0.436158	0.609234
H62	H	0.889212	-0.421827	0.691081
O63	O	1.239175	0.220981	0.000072
H64	H	1.244242	0.162025	0.068082
H65	H	1.176285	-0.019067	0.247243
H66	H	0.480740	-0.171433	-0.255902
H67	H	0.914960	0.418204	0.000023
O68	O	0.663806	-0.176356	0.280057
H69	H	0.615304	-0.175078	0.343303
O70	O	0.878954	-0.436129	0.390940
H71	H	0.889145	-0.421788	0.309089
O72	O	1.253165	0.088729	0.609177
H73	H	1.241078	0.186662	0.589020
O74	O	0.467964	-0.171454	0.279845
H75	H	0.493198	-0.086522	0.323770
H76	H	0.339662	-0.167701	-0.164943
H77	H	0.955803	-0.328388	0.247265
H78	H	0.339665	-0.167733	0.165066
O79	O	0.804889	-0.180069	0.189085
H80	H	0.756389	-0.178787	0.252331
O81	O	1.253086	0.088781	0.390894
H82	H	1.242864	0.074463	0.309045
H83	H	0.792450	-0.179709	-0.164977
