data_functionalizedCrystal
_audit_creation_method	'MofGen! by Chris Wilmer'
_symmetry_space_group_name_H-M	'P1'
_symmetry_Int_Tables_number	1
_symmetry_cell_setting	triclinic
loop_
_symmetry_equiv_pos_as_xyz
  x,y,z
_cell_length_a	6.817900
_cell_length_b	9.582860
_cell_length_c	16.418042
_cell_angle_alpha	93.122023
_cell_angle_beta	103.389568
_cell_angle_gamma	111.206767
loop_
_atom_site_label
_atom_site_type_symbol
_atom_site_fract_x
_atom_site_fract_y
_atom_site_fract_z
V1	V	-4.065734	-0.208271	-0.260999
O2	O	-4.011405	0.008757	-0.256189
O3	O	-4.056512	-0.411763	-0.259062
O4	O	-4.016296	-0.205617	-0.374899
O5	O	-4.051900	-0.198817	-0.139550
V6	V	-4.544419	-0.182247	-0.246491
O7	O	-4.337603	-0.265357	-0.292823
O8	O	-4.722747	-0.125162	-0.214667
O9	O	-4.330434	0.021245	-0.248428
O10	O	-4.716145	-0.399275	-0.251302
O11	O	-4.675650	-0.191702	-0.367941
O12	O	-4.370650	-0.184902	-0.132591
C13	C	-3.911078	-0.461353	-0.254906
C14	C	-3.984818	-0.627714	-0.254081
C15	C	-3.859777	-0.198391	-0.402666
C16	C	-3.900899	-0.197567	-0.495779
C17	C	-4.178993	-0.203134	-0.714261
C18	C	-4.217610	-0.202347	-0.801749
C19	C	-3.850514	-0.187377	-0.793218
C20	C	-3.811895	-0.188153	-0.705730
C21	C	-3.976145	-0.196040	-0.666255
C22	C	-4.053381	-0.194476	-0.841230
C23	C	-4.095250	-0.193623	-0.936089
C24	C	-3.934273	-0.196890	-0.571390
C25	C	-4.139212	0.070826	-0.252583
C26	C	-4.044710	0.237186	-0.253413
C27	C	-4.190513	-0.192133	-0.104820
C28	C	-4.128628	-0.192949	-0.011706
H29	H	-4.312738	-0.209553	-0.682123
H30	H	-3.716795	-0.180960	-0.825369
H31	H	-4.382785	-0.208122	-0.840832
O32	O	-3.593078	-0.180476	-0.653947
H33	H	-3.593809	-0.182314	-0.586478
