data_functionalizedCrystal
_audit_creation_method	'MofGen! by Chris Wilmer'
_symmetry_space_group_name_H-M	'P1'
_symmetry_Int_Tables_number	1
_symmetry_cell_setting	triclinic
loop_
_symmetry_equiv_pos_as_xyz
  x,y,z
_cell_length_a	14.908571
_cell_length_b	16.959454
_cell_length_c	14.908308
_cell_angle_alpha	93.269679
_cell_angle_beta	90.175053
_cell_angle_gamma	86.716421
loop_
_atom_site_label
_atom_site_type_symbol
_atom_site_fract_x
_atom_site_fract_y
_atom_site_fract_z
Zn1	Zn	1.345297	-0.412496	-0.587603
Zn2	Zn	1.353878	-0.537521	-0.437249
Zn3	Zn	1.203612	-0.397314	-0.428600
Zn4	Zn	1.194906	-0.536582	-0.578901
O5	O	1.274423	-0.470978	-0.508088
O6	O	1.472261	-0.435828	-0.574920
O7	O	1.341180	-0.512961	-0.310277
O8	O	1.222460	-0.288721	-0.449714
O9	O	1.478566	-0.527683	-0.464456
O10	O	1.326555	-0.299875	-0.566532
O11	O	1.230780	-0.409952	-0.303922
O12	O	1.076631	-0.409042	-0.441276
O13	O	1.207621	-0.526082	-0.705880
O14	O	1.070235	-0.511361	-0.551701
O15	O	1.318113	-0.434917	-0.712273
O16	O	1.332737	-0.648003	-0.456018
O17	O	1.215941	-0.647313	-0.560089
C18	C	1.040808	-0.458452	-0.494606
C19	C	0.940865	-0.453114	-0.488860
C20	C	0.746458	-0.549777	-0.592894
C21	C	0.652552	-0.544763	-0.587498
C22	C	0.659146	-0.438070	-0.472677
C23	C	0.753052	-0.443084	-0.478073
C24	C	0.796704	-0.498940	-0.538183
C25	C	0.890612	-0.503956	-0.543574
C26	C	0.897204	-0.397260	-0.428758
C27	C	0.803298	-0.392247	-0.423362
C28	C	1.274349	-0.676340	-0.508068
C29	C	1.274398	-0.764200	-0.508095
C30	C	1.213691	-1.135352	-0.562276
C31	C	1.335401	-1.136020	-0.454006
C32	C	1.335370	-1.053472	-0.453996
C33	C	1.274498	-1.011860	-0.508126
C34	C	1.213657	-1.052796	-0.562266
C35	C	1.396203	-1.012529	-0.399850
C36	C	1.396174	-0.929976	-0.399837
C37	C	1.335306	-0.888363	-0.453972
C38	C	1.274463	-0.929304	-0.508115
C39	C	1.213591	-0.887692	-0.562245
C40	C	1.152752	-0.928632	-0.616394
C41	C	1.152788	-1.011183	-0.616402
C42	C	1.335269	-0.805812	-0.453965
C43	C	1.213557	-0.805136	-0.562235
C44	C	1.508951	-0.483554	-0.521623
C45	C	1.608893	-0.488913	-0.527391
C46	C	1.260938	-0.482089	-0.742614
C47	C	1.255192	-0.486823	-0.842555
C48	C	1.274521	-0.264817	-0.508129
C49	C	1.274563	-0.176963	-0.508146
C50	C	1.359446	-0.400771	-1.037013
C51	C	1.354049	-0.405217	-1.130917
C52	C	1.238998	-0.500156	-1.124267
C53	C	1.244395	-0.495710	-1.030364
C54	C	1.304622	-0.446017	-0.986740
C55	C	1.310022	-0.441576	-0.892835
C56	C	1.194967	-0.536510	-0.886187
C57	C	1.189570	-0.540956	-0.980090
C58	C	1.287908	-0.459857	-0.274478
C59	C	1.293828	-0.454909	-0.174547
H60	H	0.782000	-0.595261	-0.641833
H61	H	1.384955	-1.169904	-0.409930
H62	H	1.398691	-0.368371	-1.171846
N63	N	1.461797	-0.885822	-0.341447
H64	H	1.500365	-0.924711	-0.307160
H65	H	1.501256	-0.855507	-0.380487
N66	N	1.124596	-0.594534	-1.027142
H67	H	1.129489	-0.590481	-1.094258
H68	H	1.139498	-0.650962	-1.011536
N69	N	0.612038	-0.377845	-0.407846
H70	H	0.627569	-0.322919	-0.422841
H71	H	0.544943	-0.382471	-0.412777
N72	N	1.135835	-0.585321	-0.831965
H73	H	1.148393	-0.574968	-0.765857
H74	H	1.070678	-0.570359	-0.844672
H75	H	0.926152	-0.549438	-0.592516
H76	H	0.767743	-0.346769	-0.374425
H77	H	1.384800	-0.772482	-0.409873
H78	H	0.938125	-0.355866	-0.384206
N79	N	1.148067	-1.179498	-0.620672
H80	H	1.158278	-1.168895	-0.685728
H81	H	1.157354	-1.238092	-0.612396
N82	N	0.598356	-0.599595	-0.646506
H83	H	0.640262	-0.635739	-0.685400
H84	H	0.561488	-0.632308	-0.607594
N85	N	1.461846	-1.057420	-0.341474
H86	H	1.525271	-1.047117	-0.359189
H87	H	1.451543	-1.039276	-0.276432
H88	H	1.359063	-0.401114	-0.857318
N89	N	1.424423	-0.347197	-0.989959
H90	H	1.419529	-0.351253	-0.922844
H91	H	1.487682	-0.363741	-1.010087
N92	N	1.147905	-0.760257	-0.620623
H93	H	1.109373	-0.798720	-0.654924
H94	H	1.108412	-0.722080	-0.581585
N95	N	1.087102	-0.883740	-0.674772
H96	H	1.097325	-0.901864	-0.739835
H97	H	1.023708	-0.894060	-0.656979
N98	N	1.087170	-1.055338	-0.674796
H99	H	1.096426	-1.113947	-0.666583
H100	H	1.023768	-1.036845	-0.657038
N101	N	1.174007	-0.553716	-1.171324
H102	H	1.178898	-0.549652	-1.238438
H103	H	1.188889	-0.610150	-1.155730
