data_functionalizedCrystal
_audit_creation_method	'MofGen! by Chris Wilmer'
_symmetry_space_group_name_H-M	'P1'
_symmetry_Int_Tables_number	1
_symmetry_cell_setting	triclinic
loop_
_symmetry_equiv_pos_as_xyz
  x,y,z
_cell_length_a	13.339070
_cell_length_b	10.540539
_cell_length_c	12.376457
_cell_angle_alpha	101.393660
_cell_angle_beta	75.589755
_cell_angle_gamma	100.077393
loop_
_atom_site_label
_atom_site_type_symbol
_atom_site_fract_x
_atom_site_fract_y
_atom_site_fract_z
O1	O	1.366170	0.620442	-0.094026
O2	O	1.071037	0.536703	-0.094022
O3	O	1.225337	0.396162	-0.094023
O4	O	1.211871	0.760984	-0.094026
O5	O	1.186775	0.431235	0.093989
O6	O	1.032476	0.571777	0.093990
O7	O	1.327609	0.655516	0.093986
Zn8	Zn	1.173920	0.619215	0.123839
Zn9	Zn	1.224726	0.573004	-0.123875
O10	O	1.173309	0.796058	0.093987
C11	C	1.013965	0.540095	-0.000016
C12	C	0.901358	0.497931	-0.000014
C13	C	1.205046	0.366051	-0.000019
C14	C	1.202026	0.224072	-0.000025
C15	C	0.538938	0.825771	-0.000035
C16	C	0.644738	0.865389	-0.000040
C17	C	0.708898	0.773528	-0.000033
C18	C	0.667248	0.642042	-0.000022
C19	C	0.561440	0.602418	-0.000026
C20	C	0.731400	0.550175	-0.000024
C21	C	0.689750	0.418690	-0.000014
C22	C	0.583951	0.379073	-0.000017
C23	C	0.519791	0.470934	-0.000024
C24	C	0.837208	0.589799	-0.000020
C25	C	0.859710	0.366447	-0.000012
C26	C	0.753910	0.326829	-0.000007
C27	C	1.086335	0.001104	-0.000445
C28	C	1.089311	0.148845	-0.000022
C29	C	1.234249	0.200932	0.107338
C30	C	1.230384	0.053093	0.107429
C31	C	1.276528	0.013471	-0.106376
C32	C	1.277857	0.160541	-0.107796
C33	C	1.384681	0.652124	-0.000023
C34	C	1.497290	0.694286	-0.000032
C35	C	1.193600	0.826168	-0.000020
C36	C	1.196622	0.968146	-0.000021
N37	N	1.139253	0.650755	0.292897
N38	N	1.259401	0.541457	-0.292934
C39	C	1.339873	0.468218	0.647881
C40	C	1.364130	0.446141	0.529541
C41	C	1.307913	0.497292	0.470375
C42	C	1.227434	0.570525	0.529559
C43	C	1.203180	0.592613	0.647911
C44	C	1.171220	0.621687	0.470404
C45	C	1.090741	0.694920	0.529589
C46	C	1.066490	0.717003	0.647929
C47	C	1.122707	0.665852	0.707096
C48	C	1.195474	0.599599	0.352053
C49	C	1.058781	0.723994	0.352082
C50	C	1.034523	0.746071	0.470422
H51	H	0.795045	0.805792	-0.000039
O52	O	0.689657	1.007198	-0.000026
H53	H	0.627268	1.064423	-0.000013
H54	H	1.026288	-0.029936	0.076117
O55	O	0.469741	0.924843	-0.000033
H56	H	0.389172	0.875200	-0.000025
H57	H	1.254458	0.173055	-0.187220
H58	H	0.433639	0.438683	-0.000019
H59	H	1.385643	0.426586	0.696063
H60	H	1.256738	-0.045697	-0.187751
H61	H	1.102955	0.683822	0.803458
O62	O	0.539022	0.237260	-0.000002
H63	H	0.601404	0.180040	0.000018
H64	H	1.000967	0.776645	0.696117
O65	O	1.155471	0.017451	0.213728
H66	H	1.122337	0.105761	0.264582
O67	O	1.048268	-0.075909	-0.102429
H68	H	0.970386	-0.050970	-0.100823
O69	O	1.450917	0.367148	0.465705
H70	H	1.485926	0.335276	0.526726
O71	O	0.947732	0.825071	0.534259
H72	H	0.940322	0.831841	0.626489
H73	H	1.013005	0.765649	0.303909
H74	H	0.719985	0.219769	-0.000008
H75	H	0.871108	0.696856	-0.000025
O76	O	0.928894	0.267354	0.000006
H77	H	1.009459	0.316997	0.000022
O78	O	1.342801	0.268914	0.112644
H79	H	1.399383	0.230152	0.036170
H80	H	1.361364	0.211563	-0.114280
O81	O	1.053662	0.167006	-0.101949
H82	H	1.034133	0.070100	-0.151987
O83	O	1.334062	0.473458	0.342736
H84	H	1.416367	0.514716	0.311504
H85	H	1.358089	-0.006141	-0.107099
H86	H	1.030519	0.190332	0.077069
O87	O	1.336421	0.027340	0.113915
H88	H	1.395677	0.057078	0.039721
H89	H	1.180182	0.245593	0.187236
O90	O	1.282253	0.520595	0.288215
H91	H	1.356782	0.568932	0.310907
