data_functionalizedCrystal
_audit_creation_method	'MofGen! by Chris Wilmer'
_symmetry_space_group_name_H-M	'P1'
_symmetry_Int_Tables_number	1
_symmetry_cell_setting	triclinic
loop_
_symmetry_equiv_pos_as_xyz
  x,y,z
_cell_length_a	15.538191
_cell_length_b	17.699083
_cell_length_c	16.176319
_cell_angle_alpha	90.007696
_cell_angle_beta	89.990661
_cell_angle_gamma	114.722446
loop_
_atom_site_label
_atom_site_type_symbol
_atom_site_fract_x
_atom_site_fract_y
_atom_site_fract_z
O1	O	1.250479	0.245973	-0.068751
O2	O	1.750479	0.745973	0.431249
O3	O	0.976020	0.158526	-0.068752
O4	O	1.476020	0.658526	0.431248
O5	O	1.121003	0.314557	-0.068745
O6	O	1.621003	0.814557	0.431255
O7	O	1.105495	0.089941	-0.068759
O8	O	1.605495	0.589941	0.431241
O9	O	1.120983	0.314559	0.068749
O10	O	1.620983	0.814559	0.568749
O11	O	0.976000	0.158528	0.068741
O12	O	1.476000	0.658528	0.568741
O13	O	1.250459	0.245975	0.068742
O14	O	1.750459	0.745975	0.568742
Cu15	Cu	1.113227	0.202251	0.081296
Cu16	Cu	1.613227	0.702251	0.581296
Cu17	Cu	1.113251	0.202249	-0.081306
Cu18	Cu	1.613251	0.702249	0.418694
O19	O	1.105475	0.089943	0.068734
O20	O	1.605475	0.589943	0.568734
C21	C	0.940893	0.149378	-0.000006
C22	C	1.440893	0.649378	0.499994
C23	C	0.836257	0.122125	-0.000006
C24	C	1.336257	0.622125	0.499994
C25	C	1.120438	0.342603	0.000002
C26	C	1.620438	0.842603	0.500002
C27	C	1.118771	0.426166	0.000003
C28	C	1.618771	0.926166	0.500003
N29	N	1.113218	0.202255	0.195661
N30	N	1.613218	0.702255	0.695661
C31	C	0.549086	0.392872	-0.000001
C32	C	1.049086	0.892872	0.499999
C33	C	0.450762	0.367245	-0.000004
C34	C	0.950762	0.867245	0.499996
C35	C	0.427989	0.223099	-0.000013
C36	C	0.927989	0.723099	0.499987
C37	C	0.526313	0.248714	-0.000007
C38	C	1.026313	0.748714	0.499993
C39	C	0.586855	0.333602	-0.000002
C40	C	1.086855	0.833602	0.499998
C41	C	0.564082	0.189444	-0.000007
C42	C	1.064082	0.689444	0.499993
C43	C	0.662398	0.215057	-0.000005
C44	C	1.162398	0.715057	0.499995
C45	C	0.722945	0.299940	-0.000003
C46	C	1.222945	0.799940	0.499997
C47	C	0.685171	0.359215	0.000000
C48	C	1.185171	0.859215	0.500000
C49	C	0.503539	0.104556	-0.000018
C50	C	1.003539	0.604556	0.499982
C51	C	0.541308	0.045286	-0.000018
C52	C	1.041308	0.545286	0.499982
C53	C	0.639625	0.070899	-0.000010
C54	C	1.139625	0.570899	0.499990
C55	C	0.700173	0.155782	-0.000008
C56	C	1.200173	0.655782	0.499992
C57	C	0.677400	0.011624	-0.000013
C58	C	1.177400	0.511624	0.499987
C59	C	0.775716	0.037238	-0.000011
C60	C	1.275716	0.537238	0.499989
C61	C	0.798489	0.181396	-0.000006
C62	C	1.298489	0.681396	0.499994
C63	C	1.285585	0.255123	-0.000006
C64	C	1.785585	0.755123	0.499994
C65	C	1.390221	0.282375	-0.000012
C66	C	1.890221	0.782375	0.499988
C67	C	1.106041	0.061897	-0.000014
C68	C	1.606041	0.561897	0.499986
C69	C	1.107708	-0.021665	-0.000020
C70	C	1.607708	0.478335	0.499980
C71	C	1.203873	0.498041	0.000004
C72	C	1.703873	0.998041	0.500004
C73	C	1.202301	0.576554	-0.000003
C74	C	1.702301	1.076554	0.499997
C75	C	1.115626	0.583192	-0.000006
C76	C	1.615626	1.083192	0.499994
C77	C	1.030517	0.511309	-0.000010
C78	C	1.530517	1.011309	0.499990
C79	C	1.032090	0.432797	-0.000009
C80	C	1.532090	0.932797	0.499991
C81	C	1.024171	0.827938	-0.000017
C82	C	1.524171	1.327938	0.499983
C83	C	1.022605	0.906458	-0.000016
C84	C	1.522605	1.406458	0.499984
C85	C	1.194382	0.971696	-0.000011
C86	C	1.694382	1.471696	0.499989
C87	C	1.195955	0.893184	-0.000010
C88	C	1.695955	1.393184	0.499990
C89	C	1.110847	0.821308	-0.000018
C90	C	1.610847	1.321308	0.499982
C91	C	1.112552	0.736175	-0.000012
C92	C	1.612552	1.236175	0.499988
C93	C	1.113919	0.668323	-0.000007
C94	C	1.613919	1.168323	0.499993
N95	N	1.113268	0.202253	-0.195671
N96	N	1.613268	0.702253	0.304329
C97	C	1.177436	0.271330	0.238928
C98	C	1.677436	0.771330	0.738928
C99	C	1.177441	0.271332	0.325476
C100	C	1.677441	0.771332	0.825476
C101	C	1.113231	0.202256	0.368753
C102	C	1.613231	0.702256	0.868753
C103	C	1.049006	0.133177	0.325480
C104	C	1.549006	0.633177	0.825480
C105	C	1.048998	0.133178	0.238934
C106	C	1.548998	0.633178	0.738934
C107	C	1.049038	0.133172	0.674508
C108	C	1.549038	0.633172	1.174508
C109	C	1.049054	0.133175	0.761059
C110	C	1.549054	0.633175	1.261059
C111	C	1.177481	0.271326	0.761049
C112	C	1.677481	0.771326	1.261049
C113	C	1.177473	0.271327	0.674504
C114	C	1.677473	0.771327	1.174504
C115	C	1.113245	0.202250	0.631238
C116	C	1.613245	0.702250	1.131238
C117	C	1.113239	0.202249	0.537393
C118	C	1.613239	0.702249	1.037393
C119	C	1.113240	0.202254	0.462596
C120	C	1.613240	0.702254	0.962596
H121	H	0.803000	0.320793	-0.000012
H122	H	1.303000	0.820793	0.499988
H123	H	0.420016	0.415517	-0.000005
H124	H	0.920016	0.915517	0.499995
O125	O	1.297359	0.490883	-0.000001
O126	O	1.797359	0.990883	0.499999
H127	H	1.356271	0.554055	-0.000012
H128	H	1.856271	1.054055	0.499988
O129	O	0.979759	0.058668	0.372155
O130	O	1.479759	0.558668	0.872155
H131	H	0.906300	0.048165	0.355571
H132	H	1.406300	0.548165	0.855571
H133	H	1.271600	0.635075	-0.000000
H134	H	1.771600	1.135075	0.500000
H135	H	1.229776	0.327574	0.796286
H136	H	1.729776	0.827574	1.296286
H137	H	0.734468	0.428339	0.000009
H138	H	1.234468	0.928339	0.500009
O139	O	0.612092	-0.079928	-0.000025
O140	O	1.112092	0.420072	0.499975
H141	H	0.654873	-0.116841	-0.000031
H142	H	1.154873	0.383159	0.499969
O143	O	1.246717	0.345834	0.627822
O144	O	1.746717	0.845834	1.127822
H145	H	1.320177	0.356348	0.644415
H146	H	1.820177	0.856348	1.144415
H147	H	0.996704	0.076931	0.203706
H148	H	1.496704	0.576931	0.703706
H149	H	0.598383	0.461996	0.000007
H150	H	1.098383	0.961996	0.500007
O151	O	0.816459	-0.026687	-0.000001
O152	O	1.316459	0.473313	0.499999
H153	H	0.792135	-0.066176	-0.056037
H154	H	1.292135	0.433824	0.443963
O155	O	0.932381	0.750421	-0.000005
O156	O	1.432381	1.250421	0.499995
H157	H	0.871849	0.768230	0.000008
H158	H	1.371849	1.268230	0.500008
H159	H	1.263682	1.030228	-0.000009
H160	H	1.763682	1.530228	0.499991
H161	H	0.996744	0.076926	0.639287
H162	H	1.496744	0.576926	1.139287
H163	H	1.229726	0.327578	0.203697
H164	H	1.729726	0.827578	0.703697
O165	O	1.289439	0.886022	-0.000019
O166	O	1.789439	1.386022	0.499981
H167	H	1.348354	0.949193	-0.000030
H168	H	1.848354	1.449193	0.499970
O169	O	0.863799	0.272954	0.000014
O170	O	1.363799	0.772954	0.500014
H171	H	0.909155	0.288072	-0.056020
H172	H	1.409155	0.788072	0.443980
O173	O	0.937028	0.518462	-0.000016
O174	O	1.437028	1.018462	0.499984
H175	H	0.896134	0.487745	0.056020
H176	H	1.396134	0.987745	0.556020
H177	H	0.378683	0.153983	-0.000020
H178	H	0.878683	0.653983	0.499980
H179	H	0.962790	0.374274	-0.000010
H180	H	1.462790	0.874274	0.499990
H181	H	0.423484	0.083705	-0.000022
H182	H	0.923484	0.583705	0.499978
H183	H	1.229731	0.327579	0.360704
H184	H	1.729731	0.827579	0.860704
H185	H	0.996763	0.076923	0.796295
H186	H	1.496763	0.576923	1.296295
O187	O	0.476003	-0.046267	-0.000011
O188	O	0.976003	0.453733	0.499989
H189	H	0.430666	-0.061393	-0.056046
H190	H	0.930666	0.438607	0.443954
O191	O	0.929115	0.913621	-0.000026
O192	O	1.429115	1.413621	0.499974
H193	H	0.870197	0.850451	-0.000039
H194	H	1.370197	1.350451	0.499961
