data_functionalizedCrystal
_audit_creation_method	'MofGen! by Chris Wilmer'
_symmetry_space_group_name_H-M	'P1'
_symmetry_Int_Tables_number	1
_symmetry_cell_setting	triclinic
loop_
_symmetry_equiv_pos_as_xyz
  x,y,z
_cell_length_a	15.944499
_cell_length_b	15.944551
_cell_length_c	11.295483
_cell_angle_alpha	94.094426
_cell_angle_beta	85.892628
_cell_angle_gamma	83.488174
loop_
_atom_site_label
_atom_site_type_symbol
_atom_site_fract_x
_atom_site_fract_y
_atom_site_fract_z
O1	O	1.120213	0.102464	-0.099099
O2	O	0.875657	0.115866	-0.099086
O3	O	1.004613	-0.013111	-0.099082
O4	O	0.991257	0.231440	-0.099103
O5	O	0.993286	-0.001800	0.098968
O6	O	0.864330	0.127177	0.098964
O7	O	1.108887	0.113774	0.098951
Cu8	Cu	0.985574	0.121508	0.117041
Cu9	Cu	0.998969	0.108132	-0.117176
O10	O	0.979931	0.242751	0.098947
C11	C	0.838699	0.120973	-0.000059
C12	C	0.745450	0.119328	-0.000054
C13	C	0.998395	-0.038749	-0.000057
C14	C	0.996733	-0.131995	-0.000056
C15	C	0.453915	0.194259	-0.000078
C16	C	0.520529	0.149731	-0.097726
C17	C	0.409815	0.113350	-0.000081
C18	C	0.509348	0.160860	0.097536
C19	C	0.574723	0.116292	-0.000066
C20	C	0.475205	0.068795	-0.097810
C21	C	0.464013	0.079941	0.097540
C22	C	0.530610	0.035352	-0.000132
C23	C	0.314816	0.111658	-0.000091
C24	C	0.669722	0.117977	-0.000064
C25	C	0.912827	-0.346837	-0.000068
C26	C	0.946206	-0.402284	0.097581
C27	C	0.993726	-0.302721	-0.000065
C28	C	0.957392	-0.413419	-0.097681
C29	C	0.990816	-0.467634	-0.000079
C30	C	1.027122	-0.356936	0.097664
C31	C	1.038302	-0.368069	-0.097686
C32	C	1.071738	-0.423498	-0.000013
C33	C	0.995400	-0.207718	-0.000056
C34	C	0.989147	-0.562634	-0.000079
C35	C	1.145845	0.108667	-0.000078
C36	C	1.239094	0.110312	-0.000091
C37	C	0.986149	0.268389	-0.000081
C38	C	0.987811	0.361635	-0.000089
N39	N	0.976159	0.130916	0.281777
N40	N	1.008391	0.098718	-0.281912
C41	C	1.076166	0.030949	0.531070
C42	C	1.069057	0.038064	0.655733
C43	C	0.954828	0.152258	0.655770
C44	C	0.961937	0.145142	0.531107
C45	C	1.022609	0.084487	0.468761
C46	C	1.029722	0.077376	0.344095
C47	C	0.915490	0.191565	0.344134
C48	C	0.908381	0.198680	0.468798
H49	H	0.545349	0.179240	-0.180280
H50	H	0.524702	0.199809	0.180087
H51	H	0.907267	-0.417671	0.180139
H52	H	1.125573	-0.018434	0.480307
N53	N	0.412104	0.278479	-0.000230
N54	N	0.367852	0.297990	-0.083328
H55	H	0.338322	0.357469	-0.083445
N56	N	1.123766	-0.016634	0.719363
N57	N	1.177928	-0.070787	0.663677
H58	H	1.216568	-0.109423	0.708614
H59	H	0.459953	0.029886	-0.180456
N60	N	0.920373	-0.444541	-0.201231
N61	N	0.855420	-0.481370	-0.190376
H62	H	0.829270	-0.503348	-0.263503
N63	N	0.892855	0.214198	0.719484
N64	N	0.886513	0.220533	0.830790
H65	H	0.842743	0.264278	0.875791
N66	N	0.828579	-0.305037	0.000061
N67	N	0.774831	-0.312103	0.083782
H68	H	0.715331	-0.282581	0.083879
H69	H	0.563790	-0.031856	-0.000178
H70	H	1.079126	0.027989	0.293334
N71	N	1.064088	-0.325967	0.201347
N72	N	1.138355	-0.353273	0.219232
H73	H	1.164460	-0.331401	0.292459
H74	H	1.138944	-0.456666	0.000039
H75	H	0.439174	0.050463	0.180102
N76	N	1.087110	-0.348745	-0.201266
N77	N	1.065332	-0.368803	-0.302584
H78	H	1.099798	-0.355155	-0.375748
N79	N	0.846409	0.260626	0.532505
N80	N	0.840066	0.266970	0.643811
H81	H	0.796299	0.310721	0.688805
N82	N	0.860794	0.246259	0.280468
N83	N	0.867154	0.239907	0.169162
H84	H	0.828530	0.278537	0.124195
