data_functionalizedCrystal
_audit_creation_method	'MofGen! by Chris Wilmer'
_symmetry_space_group_name_H-M	'P1'
_symmetry_Int_Tables_number	1
_symmetry_cell_setting	triclinic
loop_
_symmetry_equiv_pos_as_xyz
  x,y,z
_cell_length_a	10.654550
_cell_length_b	11.792241
_cell_length_c	9.730223
_cell_angle_alpha	89.998500
_cell_angle_beta	89.996251
_cell_angle_gamma	84.339159
loop_
_atom_site_label
_atom_site_type_symbol
_atom_site_fract_x
_atom_site_fract_y
_atom_site_fract_z
O1	O	1.667383	0.159415	-0.114404
O2	O	1.301862	0.174603	-0.114382
O3	O	1.493493	0.001859	-0.114383
O4	O	1.475752	0.332159	-0.114402
O5	O	1.493490	0.001863	0.114196
O6	O	1.301859	0.174608	0.114198
O7	O	1.667381	0.159419	0.114176
Zn8	Zn	1.484620	0.167014	0.150479
Zn9	Zn	1.484623	0.167008	-0.150685
O10	O	1.475750	0.332163	0.114178
C11	C	1.255066	0.173490	-0.000089
C12	C	1.115632	0.170154	-0.000080
C13	C	1.035858	0.271863	-0.000106
C14	C	0.904847	0.268721	-0.000129
C15	C	0.933394	0.062152	-0.000107
C16	C	1.064404	0.065295	-0.000074
C17	C	1.087087	0.376722	-0.000112
C18	C	1.007312	0.478439	-0.000139
C19	C	0.876300	0.475297	-0.000163
C20	C	0.825063	0.370438	-0.000159
C21	C	1.492377	-0.040432	-0.000094
C22	C	1.489042	-0.166454	-0.000095
C23	C	1.482908	-0.397180	-0.000118
C24	C	1.486316	-0.268787	-0.000105
C25	C	1.714177	0.160532	-0.000120
C26	C	1.853611	0.163869	-0.000137
C27	C	1.476865	0.374455	-0.000114
C28	C	1.480201	0.500476	-0.000122
N29	N	1.484627	0.167017	0.356016
N30	N	1.484625	0.166996	-0.356221
C31	C	1.569503	0.090552	0.427941
C32	C	1.569500	0.090539	0.571824
C33	C	1.399740	0.243465	0.571844
C34	C	1.399739	0.243472	0.427963
C35	C	1.654391	0.014098	0.355993
C36	C	1.739275	-0.062373	0.427919
C37	C	1.739272	-0.062387	0.571802
C38	C	1.654385	0.014070	0.643759
H39	H	1.129358	-0.017526	-0.000057
H40	H	0.891666	-0.023220	-0.000127
O41	O	1.654525	0.013924	0.216227
C42	C	1.747731	-0.069912	0.009738
C43	C	1.747695	-0.069859	0.168019
H44	H	1.823069	-0.137626	-0.029287
H45	H	1.651330	-0.089434	-0.029400
H46	H	1.768876	0.017358	-0.029280
H47	H	1.726603	-0.157104	0.207154
H48	H	1.844104	-0.050272	0.207064
H49	H	0.811350	0.558120	-0.000171
O50	O	1.057286	0.580196	-0.000202
C51	C	1.246460	0.676589	-0.000099
C52	C	1.190037	0.561269	-0.000059
H53	H	1.353796	0.661327	0.000046
H54	H	1.213773	0.726915	-0.095792
H55	H	1.213568	0.726907	0.095528
H56	H	1.222903	0.510859	-0.095622
H57	H	1.222718	0.511030	0.095697
O58	O	1.317422	0.317909	0.358145
C59	C	1.245110	0.514651	0.314179
C60	C	1.338429	0.430482	0.393310
H61	H	1.262044	0.605684	0.342602
H62	H	1.259691	0.501616	0.198970
H63	H	1.144436	0.498953	0.342455
H64	H	1.439140	0.446129	0.365149
H65	H	1.323738	0.443537	0.508499
H66	H	1.808379	-0.124659	0.630362
H67	H	1.654381	0.014044	0.760918
O68	O	1.821601	-0.136818	0.358114
C69	C	1.893888	-0.333577	0.314219
C70	C	1.800563	-0.249379	0.393311
H71	H	1.876928	-0.424600	0.342668
H72	H	1.879338	-0.320561	0.199004
H73	H	1.994559	-0.317889	0.342503
H74	H	1.699854	-0.265015	0.365141
H75	H	1.815222	-0.262414	0.508506
H76	H	1.193762	0.379291	-0.000099
O77	O	1.317119	0.317619	0.641680
C78	C	1.099205	0.382333	0.685673
C79	C	1.192633	0.298267	0.606524
H80	H	0.998539	0.366732	0.657257
H81	H	1.113681	0.369192	0.800879
H82	H	1.116245	0.473375	0.657404
H83	H	1.175650	0.207192	0.634678
H84	H	1.178135	0.311507	0.491338
H85	H	0.718383	0.367888	-0.000157
