data_functionalizedCrystal
_audit_creation_method	'MofGen! by Chris Wilmer'
_symmetry_space_group_name_H-M	'P1'
_symmetry_Int_Tables_number	1
_symmetry_cell_setting	triclinic
loop_
_symmetry_equiv_pos_as_xyz
  x,y,z
_cell_length_a	16.109301
_cell_length_b	15.021413
_cell_length_c	16.109301
_cell_angle_alpha	89.997407
_cell_angle_beta	83.461481
_cell_angle_gamma	90.004594
loop_
_atom_site_label
_atom_site_type_symbol
_atom_site_fract_x
_atom_site_fract_y
_atom_site_fract_z
O1	O	1.103137	0.073979	0.106856
O2	O	1.436470	0.407312	0.440189
O3	O	1.769803	0.740645	0.773523
O4	O	0.861075	0.073993	0.120155
O5	O	1.194408	0.407326	0.453489
O6	O	1.527741	0.740660	0.786822
O7	O	0.988755	0.073976	-0.007525
O8	O	1.322089	0.407310	0.325808
O9	O	1.655422	0.740643	0.659141
O10	O	0.975456	0.073995	0.234537
O11	O	1.308789	0.407329	0.567870
O12	O	1.642123	0.740662	0.901203
O13	O	0.988735	-0.074088	-0.007507
O14	O	1.322068	0.259246	0.325826
O15	O	1.655402	0.592579	0.659160
O16	O	0.861054	-0.074071	0.120174
O17	O	1.194388	0.259262	0.453507
O18	O	1.527721	0.592596	0.786840
O19	O	1.103116	-0.074086	0.106874
O20	O	1.436450	0.259248	0.440208
O21	O	1.769783	0.592581	0.773541
Zn22	Zn	0.982082	-0.097587	0.113527
Zn23	Zn	1.315415	0.235747	0.446860
Zn24	Zn	1.648749	0.569080	0.780194
Zn25	Zn	0.982109	0.097494	0.113503
Zn26	Zn	1.315442	0.430828	0.446836
Zn27	Zn	1.648775	0.764161	0.780169
O28	O	0.975436	-0.074069	0.234555
O29	O	1.308769	0.259264	0.567888
O30	O	1.642102	0.592598	0.901222
C31	C	0.830090	-0.000037	0.119626
C32	C	1.163423	0.333296	0.452959
C33	C	1.496756	0.666629	0.786292
C34	C	0.737794	-0.000032	0.118011
C35	C	1.071128	0.333301	0.451344
C36	C	1.404461	0.666635	0.784677
N37	N	0.982070	-0.230724	0.113543
N38	N	1.315403	0.102609	0.446876
N39	N	1.648736	0.435942	0.780209
C40	C	0.515522	-0.000037	0.190018
C41	C	0.848855	0.333297	0.523352
C42	C	1.182188	0.666630	0.856685
C43	C	0.428801	-0.000043	0.188494
C44	C	0.762135	0.333291	0.521828
C45	C	1.095468	0.666624	0.855161
C46	C	0.448676	-0.000051	0.037006
C47	C	0.782009	0.333283	0.370339
C48	C	1.115342	0.666616	0.703672
C49	C	0.535394	-0.000051	0.038530
C50	C	0.868728	0.333282	0.371864
C51	C	1.202061	0.666615	0.705197
C52	C	0.568815	-0.000040	0.115039
C53	C	0.902148	0.333294	0.448373
C54	C	1.235482	0.666627	0.781706
C55	C	0.395376	-0.000045	0.111990
C56	C	0.728709	0.333288	0.445324
C57	C	1.062042	0.666622	0.778657
C58	C	0.301350	-0.000051	0.110337
C59	C	0.634683	0.333282	0.443671
C60	C	0.968016	0.666615	0.777004
C61	C	0.662847	-0.000035	0.116693
C62	C	0.996180	0.333298	0.450026
C63	C	1.329514	0.666632	0.783359
C64	C	0.923021	-0.470400	0.172554
C65	C	1.256355	-0.137067	0.505888
C66	C	1.589688	0.196267	0.839221
C67	C	0.998143	-0.529737	0.188671
C68	C	1.331476	-0.196404	0.522004
C69	C	1.664810	0.136929	0.855337
C70	C	0.982091	-0.412331	0.113522
C71	C	1.315424	-0.078998	0.446855
C72	C	1.648758	0.254335	0.780189
C73	C	0.906990	-0.529735	0.097424
C74	C	1.240323	-0.196402	0.430758
C75	C	1.573656	0.136931	0.764091
C76	C	0.982105	-0.587755	0.113504
C77	C	1.315438	-0.254422	0.446837
C78	C	1.648772	0.078911	0.780170
C79	C	1.057251	-0.470362	0.129676
C80	C	1.390584	-0.137029	0.463009
C81	C	1.723917	0.196304	0.796342
C82	C	0.966048	-0.470355	0.038396
C83	C	1.299381	-0.137022	0.371730
C84	C	1.632715	0.196312	0.705063
C85	C	1.041224	-0.529666	0.054481
C86	C	1.374557	-0.196333	0.387814
C87	C	1.707891	0.137001	0.721147
C88	C	0.982082	-0.311274	0.113535
C89	C	1.315415	0.022059	0.446868
C90	C	1.648749	0.355393	0.780201
C91	C	0.982123	-0.688811	0.113491
C92	C	1.315456	-0.355477	0.446824
C93	C	1.648789	-0.022144	0.780157
C94	C	1.134101	-0.000053	0.107404
C95	C	1.467435	0.333280	0.440737
C96	C	1.800768	0.666613	0.774071
C97	C	1.226397	-0.000053	0.109019
C98	C	1.559730	0.333281	0.442352
C99	C	1.893063	0.666614	0.775686
C100	C	0.988206	-0.000056	-0.038491
C101	C	1.321540	0.333277	0.294842
C102	C	1.654873	0.666611	0.628176
C103	C	0.986591	-0.000057	-0.130786
C104	C	1.319925	0.333276	0.202547
C105	C	1.653258	0.666609	0.535880
N106	N	0.982128	0.230632	0.113480
N107	N	1.315461	0.563965	0.446814
N108	N	1.648794	0.897299	0.780147
C109	C	1.058599	-0.000048	-0.353059
C110	C	1.391932	0.333286	-0.019725
C111	C	1.725266	0.666619	0.313608
C112	C	1.057075	-0.000040	-0.439779
C113	C	1.390408	0.333293	-0.106446
C114	C	1.723742	0.666627	0.226888
C115	C	0.905586	-0.000035	-0.419905
C116	C	1.238919	0.333299	-0.086571
C117	C	1.572253	0.666632	0.246762
C118	C	0.907111	-0.000036	-0.333186
C119	C	1.240444	0.333298	0.000147
C120	C	1.573778	0.666631	0.333481
C121	C	0.983620	-0.000047	-0.299766
C122	C	1.316953	0.333287	0.033568
C123	C	1.650287	0.666620	0.366901
C124	C	0.980571	-0.000038	-0.473205
C125	C	1.313904	0.333295	-0.139871
C126	C	1.647238	0.666629	0.193462
C127	C	0.978918	-0.000030	-0.567231
C128	C	1.312251	0.333303	-0.233897
C129	C	1.645585	0.666637	0.099436
C130	C	0.985273	-0.000053	-0.205734
C131	C	1.318607	0.333280	0.127600
C132	C	1.651940	0.666614	0.460933
C133	C	0.975984	-0.000034	0.265521
C134	C	1.309318	0.333299	0.598854
C135	C	1.642651	0.666632	0.932187
C136	C	0.977600	-0.000027	0.357816
C137	C	1.310933	0.333306	0.691149
C138	C	1.644266	0.666639	1.024483
H139	H	0.385413	-0.000042	0.249550
H140	H	0.718746	0.333291	0.582883
H141	H	1.052080	0.666625	0.916217
O142	O	1.137946	-0.000043	-0.497261
O143	O	1.471279	0.333290	-0.163927
O144	O	1.804612	0.666624	0.169406
H145	H	1.140862	-0.060386	-0.537248
H146	H	1.474195	0.272947	-0.203915
H147	H	1.807528	0.606280	0.129418
H148	H	0.846050	-0.000032	-0.289792
H149	H	1.179384	0.333301	0.043541
H150	H	1.512717	0.666635	0.376874
O151	O	0.551573	-0.000043	0.272534
O152	O	0.884906	0.333291	0.605867
O153	O	1.218240	0.666624	0.939200
H154	H	0.499942	-0.000053	0.324415
H155	H	0.833276	0.333280	0.657748
H156	H	1.166609	0.666613	0.991081
O157	O	0.412631	-0.000057	-0.045513
O158	O	0.745964	0.333277	0.287820
O159	O	1.079297	0.666610	0.621153
H160	H	0.343376	-0.000047	-0.033979
H161	H	0.676709	0.333286	0.299355
H162	H	1.010043	0.666619	0.632688
O163	O	0.592885	-0.000056	-0.042343
O164	O	0.926219	0.333277	0.290990
O165	O	1.259552	0.666610	0.624324
H166	H	0.555079	-0.000052	-0.095801
H167	H	0.888412	0.333281	0.237533
H168	H	1.221745	0.666615	0.570866
H169	H	0.873118	-0.444378	0.222517
H170	H	1.206452	-0.111044	0.555850
H171	H	1.539785	0.222289	0.889184
H172	H	1.120897	-0.000055	-0.325851
H173	H	1.454231	0.333279	0.007482
H174	H	1.787564	0.666612	0.340816
O175	O	0.823067	-0.000042	-0.455950
O176	O	1.156401	0.333292	-0.122617
O177	O	1.489734	0.666625	0.210717
H178	H	0.834602	-0.000054	-0.525205
H179	H	1.167935	0.333279	-0.191871
H180	H	1.501268	0.666613	0.141462
O181	O	1.016110	-0.564344	0.272802
O182	O	1.349444	-0.231011	0.606136
O183	O	1.682777	0.102322	0.939469
H184	H	0.966979	-0.540633	0.321706
H185	H	1.300313	-0.207299	0.655039
H186	H	1.633646	0.126034	0.988372
O187	O	1.141407	-0.435974	0.147806
O188	O	1.474741	-0.102641	0.481140
O189	O	1.808074	0.230692	0.814473
H190	H	1.140730	-0.362087	0.147705
H191	H	1.474063	-0.028754	0.481039
H192	H	1.807397	0.304579	0.814372
H193	H	1.091238	-0.555525	0.004548
H194	H	1.424571	-0.222191	0.337881
H195	H	1.757905	0.111142	0.671215
O196	O	0.948037	-0.435769	-0.045723
O197	O	1.281370	-0.102436	0.287610
O198	O	1.614703	0.230898	0.620944
H199	H	0.890801	-0.394077	-0.037763
H200	H	1.224134	-0.060744	0.295570
H201	H	1.557467	0.272590	0.628904
O202	O	0.822858	-0.564284	0.079388
O203	O	1.156191	-0.230951	0.412721
O204	O	1.489525	0.102383	0.746054
H205	H	0.773935	-0.540538	0.128483
H206	H	1.107268	-0.207205	0.461816
H207	H	1.440602	0.126129	0.795149
