data_functionalizedCrystal
_audit_creation_method	'MofGen! by Chris Wilmer'
_symmetry_space_group_name_H-M	'P1'
_symmetry_Int_Tables_number	1
_symmetry_cell_setting	triclinic
loop_
_symmetry_equiv_pos_as_xyz
  x,y,z
_cell_length_a	12.759401
_cell_length_b	29.839131
_cell_length_c	29.839125
_cell_angle_alpha	89.974637
_cell_angle_beta	89.989750
_cell_angle_gamma	90.034343
loop_
_atom_site_label
_atom_site_type_symbol
_atom_site_fract_x
_atom_site_fract_y
_atom_site_fract_z
Zn1	Zn	1.606008	-0.178927	-0.253961
Zn2	Zn	1.605868	-0.254039	-0.178820
Zn3	Zn	1.430339	-0.178923	-0.178845
Zn4	Zn	1.430235	-0.254029	-0.253924
O5	O	1.518112	-0.216480	-0.216388
O6	O	1.753010	-0.188896	-0.243998
O7	O	1.582568	-0.244077	-0.115957
O8	O	1.453743	-0.116056	-0.188835
O9	O	1.752907	-0.244081	-0.188793
O10	O	1.582806	-0.116059	-0.244022
O11	O	1.453608	-0.188889	-0.115975
O12	O	1.283304	-0.188880	-0.188800
O13	O	1.453567	-0.244065	-0.316796
O14	O	1.283228	-0.244061	-0.243960
O15	O	1.582706	-0.188887	-0.316823
O16	O	1.582468	-0.316905	-0.188757
O17	O	1.453432	-0.316898	-0.243936
C18	C	1.245145	-0.216469	-0.216379
C19	C	1.128368	-0.216475	-0.216386
C20	C	1.073515	-0.187705	-0.187717
C21	C	0.963791	-0.187716	-0.187723
C22	C	0.963783	-0.245268	-0.245071
C23	C	1.073505	-0.245260	-0.245062
C24	C	1.073518	-0.154476	-0.154609
C25	C	0.963794	-0.154487	-0.154615
C26	C	1.517952	-0.333202	-0.216350
C27	C	1.517980	-0.383137	-0.216349
C28	C	1.585301	-0.692747	-0.245164
C29	C	1.585415	-0.880420	-0.245191
O30	O	1.642497	-0.904656	-0.269663
N31	N	1.518291	-0.903922	-0.216438
C32	C	1.451128	-0.880502	-0.187677
O33	O	1.394030	-0.904798	-0.163224
C34	C	1.451010	-0.692830	-0.187653
C35	C	1.518146	-0.669331	-0.216405
C36	C	1.652431	-0.669247	-0.273915
C37	C	1.652406	-0.622332	-0.273906
C38	C	1.585251	-0.598916	-0.245147
C39	C	1.518121	-0.622415	-0.216396
C40	C	1.383843	-0.669412	-0.158895
C41	C	1.383817	-0.622491	-0.158892
C42	C	1.450953	-0.598991	-0.187644
C43	C	1.450941	-0.552084	-0.187628
N44	N	1.518065	-0.528582	-0.216382
C45	C	1.585220	-0.551998	-0.245141
C46	C	1.451197	-0.979033	-0.187691
C47	C	1.451228	-1.025951	-0.187697
C48	C	1.585513	-1.025865	-0.245212
C49	C	1.585487	-0.978946	-0.245204
C50	C	1.518321	-0.955531	-0.216445
C51	C	1.585163	-0.453472	-0.245121
C52	C	1.585135	-0.406552	-0.245108
C53	C	1.450846	-0.406642	-0.187595
C54	C	1.450877	-0.453558	-0.187605
C55	C	1.518039	-0.476972	-0.216372
O56	O	1.393880	-0.527818	-0.163173
O57	O	1.642293	-0.527694	-0.269598
C58	C	1.585326	-0.739662	-0.245173
C59	C	1.518196	-0.763162	-0.216423
C60	C	1.451041	-0.739746	-0.187663
C61	C	1.518227	-0.810079	-0.216428
C62	C	1.585382	-0.833495	-0.245187
C63	C	1.652506	-0.809994	-0.273941
C64	C	1.652481	-0.763078	-0.273932
C65	C	1.383917	-0.763247	-0.158910
C66	C	1.383948	-0.810163	-0.158920
C67	C	1.451103	-0.833579	-0.187680
C68	C	1.792146	-0.216490	-0.216397
C69	C	1.908922	-0.216495	-0.216400
C70	C	1.518141	-0.216475	-0.333566
C71	C	1.518153	-0.216474	-0.383501
C72	C	1.518302	-0.099301	-0.216436
C73	C	1.518383	-0.049367	-0.216456
C74	C	1.585466	-0.187668	-0.693161
C75	C	1.585518	-0.187629	-0.880834
O76	O	1.642673	-0.163180	-0.905113
N77	N	1.518292	-0.216353	-0.904286
C78	C	1.451043	-0.245087	-0.880816
O79	O	1.393857	-0.269515	-0.905070
C80	C	1.450987	-0.245123	-0.693144
C81	C	1.518225	-0.216400	-0.669695
C82	C	1.652698	-0.158947	-0.669712
C83	C	1.652689	-0.158958	-0.622796
C84	C	1.585447	-0.187691	-0.599330
C85	C	1.518215	-0.216412	-0.622779
C86	C	1.383733	-0.273854	-0.669676
C87	C	1.383723	-0.273860	-0.622755
C88	C	1.450961	-0.245137	-0.599305
C89	C	1.450964	-0.245156	-0.552398
N90	N	1.518190	-0.216431	-0.528946
C91	C	1.585432	-0.187699	-0.552412
C92	C	1.451079	-0.245067	-0.979347
C93	C	1.451094	-0.245059	-1.026265
C94	C	1.585569	-0.187600	-1.026279
C95	C	1.585558	-0.187611	-0.979361
C96	C	1.518305	-0.216343	-0.955895
C97	C	1.585407	-0.187726	-0.453886
C98	C	1.585394	-0.187741	-0.406967
C99	C	1.450917	-0.245198	-0.406956
C100	C	1.450933	-0.245184	-0.453872
C101	C	1.518181	-0.216445	-0.477336
O102	O	1.393831	-0.269589	-0.528090
O103	O	1.642593	-0.163268	-0.528151
C104	C	1.585476	-0.187656	-0.740076
C105	C	1.518244	-0.216377	-0.763526
C106	C	1.451003	-0.245109	-0.740060
C107	C	1.518259	-0.216369	-0.810444
C108	C	1.585501	-0.187636	-0.833910
C109	C	1.652727	-0.158912	-0.810458
C110	C	1.652718	-0.158924	-0.763543
C111	C	1.383776	-0.273833	-0.763511
C112	C	1.383792	-0.273820	-0.810427
C113	C	1.451034	-0.245087	-0.833893
C114	C	1.518144	-0.216451	-0.099665
C115	C	1.518336	-0.216326	-0.049731
H116	H	1.107593	-0.121442	-0.167137
H117	H	0.929726	-0.166900	-0.121539
H118	H	1.396315	-0.268467	-0.960246
H119	H	1.396172	-0.387570	-0.164178
O120	O	1.318373	-0.301694	-0.692500
C121	C	1.250544	-0.276111	-0.719636
H122	H	1.287652	-0.242066	-0.726678
H123	H	1.172689	-0.271175	-0.701554
C124	C	1.185916	-0.342639	-0.755547
C125	C	1.231497	-0.300825	-0.764198
H126	H	1.174163	-0.357885	-0.783033
H127	H	1.231611	-0.359875	-0.737263
H128	H	1.121042	-0.338520	-0.740476
H129	H	1.296376	-0.304945	-0.779263
H130	H	1.185813	-0.283591	-0.782485
O131	O	0.928258	-0.112987	-0.165741
C132	C	0.866869	-0.095852	-0.130396
H133	H	0.889491	-0.113209	-0.097763
H134	H	0.780447	-0.102222	-0.137721
C135	C	0.858213	-0.023769	-0.166056
C136	C	0.886003	-0.045083	-0.125974
H137	H	0.870010	0.007548	-0.163329
H138	H	0.899568	-0.035312	-0.189870
H139	H	0.786196	-0.029081	-0.172156
H140	H	0.958021	-0.039775	-0.119878
H141	H	0.844660	-0.033537	-0.102159
H142	H	1.118163	-0.268692	-0.268403
O143	O	1.650744	-0.159795	-0.384258
C144	C	1.710109	-0.134441	-0.415035
H145	H	1.667081	-0.132877	-0.448477
H146	H	1.789876	-0.150894	-0.420025
C147	C	1.778173	-0.088551	-0.355662
C148	C	1.725321	-0.086628	-0.396735
H149	H	1.787561	-0.059058	-0.344374
H150	H	1.738181	-0.105634	-0.334927
H151	H	1.844639	-0.102264	-0.359826
H152	H	1.658851	-0.072920	-0.392570
H153	H	1.765302	-0.069541	-0.417470
H154	H	1.396192	-0.268577	-0.472965
H155	H	1.329174	-0.688537	-0.135481
O156	O	1.717894	-0.130952	-0.833277
C157	C	1.658118	-0.101939	-0.860428
H158	H	1.575377	-0.099166	-0.846282
H159	H	1.654477	-0.115824	-0.895982
C160	C	1.811137	-0.058642	-0.878542
C161	C	1.709514	-0.055233	-0.861165
H162	H	1.842841	-0.029832	-0.878998
H163	H	1.851410	-0.078189	-0.860251
H164	H	1.808088	-0.070215	-0.908168
H165	H	1.712565	-0.043666	-0.831537
H166	H	1.669242	-0.035683	-0.879451
O167	O	1.318283	-0.301710	-0.599944
C168	C	1.250471	-0.276141	-0.572798
H169	H	1.244044	-0.240752	-0.586939
H170	H	1.282942	-0.274608	-0.537240
C171	C	1.149111	-0.341551	-0.554708
C172	C	1.141210	-0.298087	-0.572079
H173	H	1.081715	-0.355089	-0.554262
H174	H	1.194799	-0.358778	-0.572995
H175	H	1.176174	-0.340268	-0.525078
H176	H	1.114160	-0.299371	-0.601710
H177	H	1.095515	-0.280861	-0.553796
H178	H	1.639845	-0.472530	-0.268548
O179	O	1.717726	-0.740323	-0.301907
C180	C	1.777014	-0.771060	-0.327282
H181	H	1.733989	-0.804518	-0.328821
H182	H	1.856836	-0.776032	-0.310861
C183	C	1.844911	-0.711629	-0.373211
C184	C	1.792063	-0.752721	-0.375104
H185	H	1.854199	-0.700317	-0.402710
H186	H	1.804971	-0.690921	-0.356115
H187	H	1.911424	-0.715778	-0.359526
H188	H	1.725546	-0.748571	-0.388784
H189	H	1.831992	-0.773429	-0.392204
H190	H	1.639809	-0.387421	-0.268522
O191	O	0.910537	-0.273289	-0.272881
C192	C	0.937320	-0.318047	-0.262982
H193	H	0.967448	-0.320260	-0.227085
H194	H	1.001021	-0.329819	-0.287040
C195	C	0.802826	-0.345329	-0.312250
C196	C	0.839821	-0.348047	-0.268160
H197	H	0.742686	-0.363836	-0.315446
H198	H	0.784783	-0.315175	-0.318921
H199	H	0.855919	-0.355139	-0.332294
H200	H	0.786733	-0.338233	-0.248118
H201	H	0.857852	-0.378201	-0.261486
O202	O	1.318538	-0.740555	-0.130991
C203	C	1.213814	-0.752045	-0.140776
H204	H	1.211629	-0.786097	-0.158057
H205	H	1.178363	-0.725634	-0.163848
C206	C	1.152944	-0.712449	-0.075728
C207	C	1.150260	-0.754274	-0.096949
H208	H	1.113739	-0.713822	-0.048694
H209	H	1.223498	-0.704706	-0.069136
H210	H	1.123404	-0.690444	-0.094959
H211	H	1.179812	-0.776276	-0.077720
H212	H	1.079709	-0.762021	-0.103536
H213	H	1.103256	-0.163738	-0.119794
H214	H	1.707070	-0.603201	-0.297320
O215	O	1.385742	-0.272903	-1.049092
C216	C	1.317912	-0.247321	-1.076229
H217	H	1.355018	-0.213275	-1.083270
H218	H	1.240056	-0.242386	-1.058147
C219	C	1.253291	-0.313850	-1.112140
C220	C	1.298869	-0.272035	-1.120791
H221	H	1.241539	-0.329095	-1.139627
H222	H	1.298986	-0.331085	-1.093856
H223	H	1.188416	-0.309731	-1.097070
H224	H	1.363748	-0.276154	-1.135855
H225	H	1.253184	-0.254801	-1.139078
O226	O	1.650727	-0.956190	-0.273179
C227	C	1.710022	-0.986924	-0.298553
H228	H	1.667006	-1.020384	-0.300091
H229	H	1.789847	-0.991892	-0.282133
C230	C	1.777902	-0.927492	-0.344485
C231	C	1.725065	-0.968587	-0.346377
H232	H	1.787187	-0.916180	-0.373984
H233	H	1.737958	-0.906785	-0.327389
H234	H	1.844417	-0.931637	-0.330800
H235	H	1.658547	-0.964440	-0.360056
H236	H	1.764999	-0.989292	-0.363476
H237	H	1.707116	-0.688307	-0.297337
H238	H	1.640195	-1.044938	-0.268628
O239	O	1.385921	-1.048706	-0.159749
C240	C	1.326664	-1.017972	-0.134359
H241	H	1.322983	-0.984519	-0.152757
H242	H	1.365191	-1.012986	-0.100253
C243	C	1.219386	-1.077410	-0.105246
C244	C	1.214857	-1.036324	-0.127845
H245	H	1.150420	-1.088731	-0.101226
H246	H	1.259311	-1.098117	-0.122350
H247	H	1.251496	-1.073250	-0.076827
H248	H	1.182760	-1.040486	-0.156265
H249	H	1.174924	-1.015618	-0.110745
H250	H	1.396174	-0.268593	-0.387842
H251	H	1.396501	-0.959971	-0.164271
H252	H	1.329119	-0.603428	-0.135474
O253	O	1.385569	-0.476319	-0.159659
C254	C	1.326315	-0.445588	-0.134264
H255	H	1.322638	-0.412132	-0.152657
H256	H	1.364841	-0.440609	-0.100157
C257	C	1.219030	-0.505029	-0.105163
C258	C	1.214506	-0.463939	-0.127755
H259	H	1.150062	-0.516349	-0.101145
H260	H	1.258952	-0.525734	-0.122271
H261	H	1.251139	-0.500874	-0.076743
H262	H	1.182409	-0.468095	-0.156176
H263	H	1.174575	-0.443235	-0.110651
O264	O	1.318875	-0.833009	-0.130942
C265	C	1.378731	-0.860157	-0.101956
H266	H	1.461478	-0.845995	-0.099203
H267	H	1.382340	-0.895705	-0.115855
C268	C	1.225829	-0.878317	-0.058619
C269	C	1.327458	-0.860921	-0.055235
H270	H	1.194201	-0.878790	-0.029800
H271	H	1.185502	-0.860028	-0.078148
H272	H	1.228851	-0.907939	-0.070203
H273	H	1.324434	-0.831298	-0.043657
H274	H	1.367784	-0.879205	-0.035703
H275	H	1.707190	-0.829067	-0.297356
O276	O	1.718062	-0.130977	-0.740837
C277	C	1.777423	-0.105626	-0.771617
H278	H	1.734392	-0.104067	-0.805059
H279	H	1.857190	-0.122080	-0.776607
C280	C	1.845491	-0.059729	-0.712251
C281	C	1.792636	-0.057811	-0.753324
H282	H	1.854881	-0.030235	-0.700967
H283	H	1.805502	-0.076810	-0.691513
H284	H	1.911958	-0.073443	-0.716415
H285	H	1.726166	-0.044103	-0.749159
H286	H	1.832615	-0.040727	-0.774061
O287	O	1.650785	-0.159872	-0.476724
C288	C	1.718630	-0.185445	-0.503851
H289	H	1.681519	-0.219486	-0.510877
H290	H	1.796470	-0.190393	-0.485767
C291	C	1.783299	-0.118904	-0.539791
C292	C	1.737716	-0.160712	-0.548424
H293	H	1.795077	-0.103646	-0.567284
H294	H	1.737595	-0.101674	-0.521514
H295	H	1.848161	-0.123032	-0.524720
H296	H	1.672850	-0.156583	-0.563489
H297	H	1.783410	-0.177940	-0.566704
H298	H	1.707439	-0.135568	-0.603708
H299	H	1.329041	-0.297214	-0.829515
H300	H	1.707455	-0.135547	-0.688813
H301	H	1.640307	-0.164222	-0.960271
O302	O	1.650833	-0.159624	-1.049028
C303	C	1.627907	-0.114850	-1.037583
H304	H	1.587519	-0.113925	-1.003516
H305	H	1.573912	-0.099717	-1.063990
C306	C	1.779968	-0.088769	-1.077273
C307	C	1.730370	-0.087633	-1.035429
H308	H	1.843171	-0.071980	-1.075946
H309	H	1.795412	-0.118934	-1.084985
H310	H	1.734961	-0.076159	-1.099275
H311	H	1.775372	-0.100249	-1.013429
H312	H	1.714936	-0.057470	-1.027713
H313	H	1.329020	-0.297232	-0.744410
