data_functionalizedCrystal
_audit_creation_method	'MofGen! by Chris Wilmer'
_symmetry_space_group_name_H-M	'P1'
_symmetry_Int_Tables_number	1
_symmetry_cell_setting	triclinic
loop_
_symmetry_equiv_pos_as_xyz
  x,y,z
_cell_length_a	21.395364
_cell_length_b	29.839131
_cell_length_c	21.395355
_cell_angle_alpha	90.020172
_cell_angle_beta	90.024552
_cell_angle_gamma	90.056371
loop_
_atom_site_label
_atom_site_type_symbol
_atom_site_fract_x
_atom_site_fract_y
_atom_site_fract_z
Zn1	Zn	0.957813	-0.178726	0.354254
Zn2	Zn	1.291146	0.154607	0.687588
Zn3	Zn	1.624479	0.487941	1.020921
Zn4	Zn	0.957696	-0.253841	0.249474
Zn5	Zn	1.291029	0.079492	0.582807
Zn6	Zn	1.624362	0.412825	0.916140
Zn7	Zn	0.853028	-0.178746	0.249491
Zn8	Zn	1.186361	0.154587	0.582824
Zn9	Zn	1.519694	0.487921	0.916158
Zn10	Zn	0.852977	-0.253849	0.354214
Zn11	Zn	1.186311	0.079484	0.687547
Zn12	Zn	1.519644	0.412817	1.020881
O13	O	0.905378	-0.216291	0.301858
O14	O	1.238712	0.117043	0.635192
O15	O	1.572045	0.450376	0.968525
O16	O	1.045475	-0.188679	0.340365
O17	O	1.378808	0.144655	0.673698
O18	O	1.712142	0.477988	1.007031
O19	O	0.943783	-0.243885	0.161798
O20	O	1.277117	0.089449	0.495131
O21	O	1.610450	0.422782	0.828465
O22	O	0.866998	-0.115876	0.263412
O23	O	1.200331	0.217457	0.596745
O24	O	1.533664	0.550791	0.930079
O25	O	1.045389	-0.243866	0.263383
O26	O	1.378722	0.089468	0.596716
O27	O	1.712056	0.422801	0.930049
O28	O	0.943983	-0.115862	0.340381
O29	O	1.277316	0.217472	0.673715
O30	O	1.610649	0.550805	1.007048
O31	O	0.866884	-0.188712	0.161811
O32	O	1.200217	0.144621	0.495144
O33	O	1.533551	0.477954	0.828477
O34	O	0.765343	-0.188720	0.263373
O35	O	1.098676	0.144613	0.596706
O36	O	1.432010	0.477947	0.930040
O37	O	0.866912	-0.243879	0.441897
O38	O	1.200245	0.089454	0.775231
O39	O	1.533578	0.422787	1.108564
O40	O	0.765306	-0.243898	0.340313
O41	O	1.098639	0.089435	0.673646
O42	O	1.431973	0.422768	1.006979
O43	O	0.943934	-0.188687	0.441927
O44	O	1.277267	0.144647	0.775260
O45	O	1.610601	0.477980	1.108593
O46	O	0.943734	-0.316710	0.263344
O47	O	1.277068	0.016624	0.596677
O48	O	1.610401	0.349957	0.930010
O49	O	0.866798	-0.316716	0.340296
O50	O	1.200132	0.016618	0.673629
O51	O	1.533465	0.349951	1.006962
C52	C	0.742591	-0.216313	0.301841
C53	C	1.075924	0.117021	0.635174
C54	C	1.409257	0.450354	0.968507
C55	C	0.672949	-0.216333	0.301848
C56	C	1.006283	0.117001	0.635181
C57	C	1.339616	0.450334	0.968515
C58	C	0.905265	-0.333013	0.301827
C59	C	1.238598	0.000320	0.635160
C60	C	1.571932	0.333653	0.968494
C61	C	0.905274	-0.382948	0.301835
C62	C	1.238607	-0.049614	0.635168
C63	C	1.571941	0.283719	0.968501
C64	C	0.640303	-0.187644	0.341994
C65	C	0.973637	0.145689	0.675328
C66	C	1.306970	0.479023	1.008661
C67	C	0.574868	-0.187632	0.341997
C68	C	0.908201	0.145701	0.675330
C69	C	1.241535	0.479035	1.008663
C70	C	0.542081	-0.216317	0.301859
C71	C	0.875414	0.117016	0.635193
C72	C	1.208748	0.450350	0.968526
C73	C	0.574735	-0.245008	0.261705
C74	C	0.908068	0.088326	0.595039
C75	C	1.241402	0.421659	0.928372
C76	C	0.640169	-0.245016	0.261699
C77	C	0.973502	0.088318	0.595033
C78	C	1.306836	0.421651	0.928366
C79	C	0.438346	-0.256775	0.296820
C80	C	0.771679	0.076559	0.630153
C81	C	1.105013	0.409892	0.963487
C82	C	0.372913	-0.256768	0.296830
C83	C	0.706246	0.076566	0.630164
C84	C	1.039580	0.409899	0.963497
C85	C	0.340260	-0.216292	0.301873
C86	C	0.673594	0.117041	0.635207
C87	C	1.006927	0.450375	0.968540
C88	C	0.373048	-0.175823	0.306919
C89	C	0.706382	0.157511	0.640253
C90	C	1.039715	0.490844	0.973586
C91	C	0.438483	-0.175831	0.306914
C92	C	0.771816	0.157503	0.640247
C93	C	1.105149	0.490836	0.973580
C94	C	0.471129	-0.216311	0.301861
C95	C	0.804462	0.117022	0.635194
C96	C	1.137795	0.450355	0.968527
C97	C	0.236662	-0.187588	0.342024
C98	C	0.569995	0.145745	0.675358
C99	C	0.903328	0.479079	1.008691
C100	C	0.171225	-0.187575	0.342022
C101	C	0.504559	0.145758	0.675356
C102	C	0.837892	0.479091	1.008689
C103	C	0.171093	-0.244955	0.261734
C104	C	0.504427	0.088378	0.595068
C105	C	0.837760	0.421712	0.928401
C106	C	0.236529	-0.244964	0.261733
C107	C	0.569862	0.088370	0.595066
C108	C	0.903195	0.421703	0.928400
C109	C	0.269309	-0.216281	0.301881
C110	C	0.602642	0.117053	0.635215
C111	C	0.935976	0.450386	0.968548
C112	C	0.945512	-0.692575	0.261848
C113	C	1.278845	-0.359242	0.595181
C114	C	1.612178	-0.025909	0.928514
C115	C	0.945589	-0.880248	0.261872
C116	C	1.278922	-0.546915	0.595205
C117	C	1.612256	-0.213582	0.928539
O118	O	0.979711	-0.904500	0.227850
O119	O	1.313044	-0.571167	0.561183
O120	O	1.646378	-0.237833	0.894516
N121	N	0.905508	-0.903733	0.301905
N122	N	1.238841	-0.570399	0.635239
N123	N	1.572175	-0.237066	0.968572
C124	C	0.865408	-0.880296	0.341939
C125	C	1.198741	-0.546963	0.675272
C126	C	1.532075	-0.213629	1.008605
O127	O	0.831323	-0.904577	0.375994
O128	O	1.164656	-0.571244	0.709328
O129	O	1.497990	-0.237910	1.042661
C130	C	0.865334	-0.692624	0.341917
C131	C	1.198668	-0.359290	0.675250
C132	C	1.532001	-0.025957	1.008584
C133	C	0.905413	-0.669142	0.301876
C134	C	1.238747	-0.335809	0.635210
C135	C	1.572080	-0.002475	0.968543
C136	C	0.985588	-0.669093	0.221811
C137	C	1.318921	-0.335760	0.555144
C138	C	1.652255	-0.002427	0.888478
C139	C	0.985566	-0.622178	0.221803
C140	C	1.318899	-0.288845	0.555136
C141	C	1.652233	0.044489	0.888470
C142	C	0.945467	-0.598744	0.261832
C143	C	1.278801	-0.265411	0.595165
C144	C	1.612134	0.067922	0.928498
C145	C	0.905391	-0.622226	0.301868
C146	C	1.238724	-0.288893	0.635202
C147	C	1.572058	0.044440	0.968535
C148	C	0.825238	-0.669188	0.381953
C149	C	1.158571	-0.335855	0.715286
C150	C	1.491904	-0.002521	1.048619
C151	C	0.825224	-0.622267	0.381945
C152	C	1.158557	-0.288934	0.715278
C153	C	1.491891	0.044400	1.048611
C154	C	0.865303	-0.598785	0.341904
C155	C	1.198636	-0.265452	0.675238
C156	C	1.531970	0.067882	1.008571
C157	C	0.865271	-0.551878	0.341889
C158	C	1.198604	-0.218544	0.675222
C159	C	1.531937	0.114789	1.008556
N160	N	0.905351	-0.528393	0.301856
N161	N	1.238685	-0.195060	0.635189
N162	N	1.572018	0.138273	0.968522
C163	C	0.945450	-0.551827	0.261827
C164	C	1.278783	-0.218493	0.595160
C165	C	1.612117	0.114840	0.928494
C166	C	0.865449	-0.978827	0.341946
C167	C	1.198782	-0.645493	0.675279
C168	C	1.532115	-0.312160	1.008613
C169	C	0.865466	-1.025744	0.341951
C170	C	1.198799	-0.692411	0.675284
C171	C	1.532133	-0.359078	1.008618
C172	C	0.945648	-1.025694	0.261885
C173	C	1.278982	-0.692360	0.595218
C174	C	1.612315	-0.359027	0.928552
C175	C	0.945627	-0.978775	0.261878
C176	C	1.278960	-0.645442	0.595211
C177	C	1.612294	-0.312108	0.928544
C178	C	0.905530	-0.955342	0.301913
C179	C	1.238863	-0.622009	0.635246
C180	C	1.572196	-0.288676	0.968579
C181	C	0.945400	-0.453301	0.261813
C182	C	1.278733	-0.119968	0.595146
C183	C	1.612067	0.213366	0.928479
C184	C	0.945372	-0.406381	0.261806
C185	C	1.278706	-0.073048	0.595140
C186	C	1.612039	0.260285	0.928473
C187	C	0.865193	-0.406436	0.341874
C188	C	1.198526	-0.073103	0.675207
C189	C	1.531860	0.260231	1.008541
C190	C	0.865218	-0.453352	0.341878
C191	C	1.198551	-0.120018	0.675212
C192	C	1.531885	0.213315	1.008545
C193	C	0.905326	-0.476783	0.301845
C194	C	1.238660	-0.143450	0.635179
C195	C	1.571993	0.189884	0.968512
O196	O	0.831172	-0.527597	0.375898
O197	O	1.164505	-0.194264	0.709232
O198	O	1.497838	0.139070	1.042565
O199	O	0.979540	-0.527537	0.227786
O200	O	1.312873	-0.194204	0.561119
O201	O	1.646206	0.139129	0.894453
C202	C	0.945534	-0.739491	0.261856
C203	C	1.278867	-0.406157	0.595189
C204	C	1.612201	-0.072824	0.928523
C205	C	0.905458	-0.762973	0.301893
C206	C	1.238791	-0.429639	0.635226
C207	C	1.572124	-0.096306	0.968559
C208	C	0.865359	-0.739539	0.341921
C209	C	1.198692	-0.406206	0.675255
C210	C	1.532026	-0.072873	1.008588
C211	C	0.905475	-0.809891	0.301897
C212	C	1.238808	-0.476557	0.635231
C213	C	1.572142	-0.143224	0.968564
C214	C	0.945574	-0.833324	0.261869
C215	C	1.278907	-0.499991	0.595202
C216	C	1.612240	-0.166657	0.928535
C217	C	0.985654	-0.809840	0.221835
C218	C	1.318988	-0.476506	0.555169
C219	C	1.652321	-0.143173	0.888502
C220	C	0.985632	-0.762924	0.221827
C221	C	1.318966	-0.429591	0.555161
C222	C	1.652299	-0.096258	0.888494
C223	C	0.825278	-0.763024	0.381955
C224	C	1.158612	-0.429690	0.715288
C225	C	1.491945	-0.096357	1.048621
C226	C	0.825303	-0.809939	0.381959
C227	C	1.158637	-0.476606	0.715292
C228	C	1.491970	-0.143272	1.048626
C229	C	0.865402	-0.833373	0.341930
C230	C	1.198735	-0.500039	0.675264
C231	C	1.532068	-0.166706	1.008597
C232	C	1.068802	-0.216269	0.301876
C233	C	1.402135	0.117064	0.635210
C234	C	1.735468	0.450398	0.968543
C235	C	1.138443	-0.216260	0.301884
C236	C	1.471776	0.117073	0.635217
C237	C	1.805109	0.450407	0.968551
C238	C	0.905430	-0.216282	0.465282
C239	C	1.238764	0.117052	0.798615
C240	C	1.572097	0.450385	1.131948
C241	C	0.905452	-0.216278	0.534923
C242	C	1.238786	0.117056	0.868256
C243	C	1.572119	0.450389	1.201590
C244	C	0.905509	-0.099112	0.301903
C245	C	1.238842	0.234221	0.635236
C246	C	1.572176	0.567554	0.968570
C247	C	0.905565	-0.049178	0.301922
C248	C	1.238898	0.284155	0.635256
C249	C	1.572231	0.617489	0.968589
C250	C	0.905362	-0.216267	0.139071
C251	C	1.238696	0.117066	0.472404
C252	C	1.572029	0.450399	0.805737
C253	C	0.905462	-0.216145	0.069430
C254	C	1.238795	0.117189	0.402763
C255	C	1.572128	0.450522	0.736096
C256	C	0.945556	-0.187538	0.567652
C257	C	1.278889	0.145796	0.900986
C258	C	1.612223	0.479129	1.234319
C259	C	0.945555	-0.187518	0.633088
C260	C	1.278889	0.145815	0.966421
C261	C	1.612222	0.479148	1.299755
C262	C	0.905457	-0.216247	0.665791
C263	C	1.238791	0.117086	0.999125
C264	C	1.572124	0.450420	1.332458
C265	C	0.865346	-0.244989	0.633054
C266	C	1.198679	0.088344	0.966387
C267	C	1.532012	0.421677	1.299720
C268	C	0.865343	-0.245005	0.567620
C269	C	1.198677	0.088329	0.900953
C270	C	1.532010	0.421662	1.234286
C271	C	0.900471	-0.256699	0.769455
C272	C	1.233804	0.076634	1.102788
C273	C	1.567137	0.409967	1.436122
C274	C	0.900478	-0.256685	0.834888
C275	C	1.233811	0.076649	1.168221
C276	C	1.567144	0.409982	1.501555
C277	C	0.905461	-0.216200	0.867612
C278	C	1.238795	0.117134	1.200945
C279	C	1.572128	0.450467	1.534279
C280	C	0.910451	-0.175728	0.834895
C281	C	1.243784	0.157605	1.168228
C282	C	1.577118	0.490939	1.501562
C283	C	0.910449	-0.175743	0.769461
C284	C	1.243782	0.157590	1.102794
C285	C	1.577115	0.490923	1.436127
C286	C	0.905455	-0.216234	0.736744
C287	C	1.238789	0.117100	1.070077
C288	C	1.572122	0.450433	1.403410
C289	C	0.945566	-0.187436	0.971294
C290	C	1.278899	0.145897	1.304628
C291	C	1.612233	0.479230	1.637961
C292	C	0.945561	-0.187416	1.036731
C293	C	1.278894	0.145917	1.370064
C294	C	1.612228	0.479251	1.703398
C295	C	0.865355	-0.244891	1.036696
C296	C	1.198688	0.088442	1.370029
C297	C	1.532021	0.421776	1.703362
C298	C	0.865357	-0.244907	0.971260
C299	C	1.198690	0.088426	1.304594
C300	C	1.532023	0.421760	1.637927
C301	C	0.905466	-0.216180	0.938563
C302	C	1.238799	0.117153	1.271897
C303	C	1.572132	0.450486	1.605230
H304	H	0.548282	-0.164268	0.374688
H305	H	0.881616	0.169065	0.708021
H306	H	1.214949	0.502399	1.041354
H307	H	0.978222	-0.164043	0.944671
H308	H	1.311555	0.169291	1.278004
H309	H	1.644888	0.502624	1.611338
O310	O	0.988611	-0.381057	0.218624
O311	O	1.321945	-0.047724	0.551957
O312	O	1.655278	0.285610	0.885290
H313	H	0.981861	-0.344494	0.225338
H314	H	1.315195	-0.011161	0.558671
H315	H	1.648528	0.322172	0.892004
O316	O	0.337842	-0.132161	0.312354
O317	O	0.671175	0.201172	0.645688
O318	O	1.004509	0.534505	0.979021
H319	H	0.286833	-0.138952	0.311502
H320	H	0.620167	0.194381	0.644835
H321	H	0.953500	0.527715	0.978168
H322	H	0.978217	-0.164010	1.063378
H323	H	1.311551	0.169323	1.396712
H324	H	1.644884	0.502657	1.730045
H325	H	0.832584	-0.472472	0.374484
H326	H	1.165918	-0.139138	0.707818
H327	H	1.499251	0.194195	1.041151
H328	H	0.832543	-0.387349	0.374463
H329	H	1.165877	-0.054016	0.707796
H330	H	1.499210	0.279317	1.041130
O331	O	0.473850	-0.132185	0.312340
O332	O	0.807183	0.201148	0.645673
O333	O	1.140517	0.534481	0.979006
H334	H	0.440157	-0.104036	0.315840
H335	H	0.773490	0.229297	0.649174
H336	H	1.106823	0.562631	0.982507
H337	H	1.018268	-0.743809	0.189223
H338	H	1.351602	-0.410475	0.522556
H339	H	1.684935	-0.077142	0.855889
H340	H	0.263109	-0.268327	0.229044
H341	H	0.596443	0.065006	0.562377
H342	H	0.929776	0.398340	0.895711
O343	O	1.028918	-0.835118	0.178673
O344	O	1.362251	-0.501785	0.512006
O345	O	1.695585	-0.168451	0.845339
H346	H	1.022202	-0.871687	0.185417
H347	H	1.355535	-0.538354	0.518750
H348	H	1.688869	-0.205020	0.852084
O349	O	0.915829	-0.132095	0.734174
O350	O	1.249163	0.201239	1.067508
O351	O	1.582496	0.534572	1.400841
H352	H	0.873864	-0.127525	0.704342
H353	H	1.207197	0.205809	1.037675
H354	H	1.540530	0.539142	1.371009
H355	H	0.144399	-0.268311	0.229053
H356	H	0.477732	0.065023	0.562387
H357	H	0.811066	0.398356	0.895720
H358	H	0.792598	-0.688299	0.414555
H359	H	1.125931	-0.354965	0.747888
H360	H	1.459265	-0.021632	1.081222
O361	O	0.988653	-0.478570	0.218631
O362	O	1.321987	-0.145237	0.551964
O363	O	1.655320	0.188096	0.885297
H364	H	1.016509	-0.454353	0.190788
H365	H	1.349842	-0.121020	0.524121
H366	H	1.683175	0.212313	0.857455
H367	H	0.792572	-0.603190	0.414548
H368	H	1.125906	-0.269857	0.747882
H369	H	1.459239	0.063476	1.081215
H370	H	0.832704	-0.268313	0.944611
H371	H	1.166037	0.065020	1.277945
H372	H	1.499370	0.398354	1.611278
H373	H	1.018203	-0.603062	0.189201
H374	H	1.351537	-0.269728	0.522534
H375	H	1.684870	0.063605	0.855867
H376	H	0.896418	-0.289639	0.861521
H377	H	1.229752	0.043694	1.194855
H378	H	1.563085	0.377028	1.528188
H379	H	0.464927	-0.289737	0.292713
H380	H	0.798260	0.043596	0.626046
H381	H	1.131593	0.376930	0.959380
H382	H	0.978211	-0.164112	0.659741
H383	H	1.311545	0.169221	0.993075
H384	H	1.644878	0.502554	1.326408
O385	O	0.822103	-0.275878	1.071958
O386	O	1.155437	0.057455	1.405291
O387	O	1.488770	0.390788	1.738624
H388	H	0.828844	-0.271041	1.122958
H389	H	1.162177	0.062292	1.456291
H390	H	1.495510	0.395625	1.789624
O391	O	0.337550	-0.300413	0.291376
O392	O	0.670883	0.032921	0.624709
O393	O	1.004216	0.366254	0.958043
H394	H	0.371246	-0.328558	0.287851
H395	H	0.704580	0.004775	0.621184
H396	H	1.037913	0.338109	0.954518
O397	O	1.028836	-0.694365	0.178630
O398	O	1.362170	-0.361032	0.511963
O399	O	1.695503	-0.027698	0.845296
H400	H	1.056692	-0.670147	0.150790
H401	H	1.390026	-0.336814	0.484123
H402	H	1.723359	-0.003480	0.817457
H403	H	0.832824	-1.044859	0.374550
H404	H	1.166157	-0.711526	0.707883
H405	H	1.499491	-0.378193	1.041217
O406	O	0.988861	-0.953448	0.218699
O407	O	1.322194	-0.620115	0.552032
O408	O	1.655527	-0.286782	0.885366
H409	H	1.016747	-0.977630	0.190871
H410	H	1.350080	-0.644297	0.524204
H411	H	1.683414	-0.310964	0.857537
O412	O	0.782073	-0.835265	0.425149
O413	O	1.115406	-0.501931	0.758482
O414	O	1.448740	-0.168598	1.091815
H415	H	0.754194	-0.811083	0.452984
H416	H	1.087527	-0.477750	0.786317
H417	H	1.420860	-0.144416	1.119651
O418	O	0.895095	-0.300368	0.734163
O419	O	1.228428	0.032965	1.067496
O420	O	1.561761	0.366298	1.400829
H421	H	0.852646	-0.299668	0.704339
H422	H	1.185979	0.033665	1.037673
H423	H	1.519312	0.366998	1.371006
H424	H	0.978298	-1.044781	0.229292
H425	H	1.311631	-0.711448	0.562626
H426	H	1.644965	-0.378114	0.895959
O427	O	0.822072	-0.275998	0.532321
O428	O	1.155405	0.057335	0.865654
O429	O	1.488738	0.390669	1.198988
H430	H	0.832767	-0.311256	0.544877
H431	H	1.166100	0.022078	0.878211
H432	H	1.499434	0.355411	1.211544
O433	O	0.822093	-0.275973	0.668325
O434	O	1.155427	0.057361	1.001658
O435	O	1.488760	0.390694	1.334991
H436	H	0.832791	-0.311234	0.655765
H437	H	1.166125	0.022099	0.989099
H438	H	1.499458	0.355433	1.322432
O439	O	0.675661	-0.156701	0.385283
O440	O	1.008994	0.176633	0.718617
O441	O	1.342328	0.509966	1.051950
H442	H	0.641962	-0.136745	0.413194
H443	H	0.975296	0.196588	0.746528
H444	H	1.308629	0.529922	1.079861
O445	O	0.988812	-0.156554	0.532385
O446	O	1.322145	0.176780	0.865718
O447	O	1.655479	0.510113	1.199052
H448	H	1.016696	-0.136564	0.566142
H449	H	1.350030	0.196770	0.899475
H450	H	1.683363	0.530103	1.232808
O451	O	0.782014	-0.737751	0.425117
O452	O	1.115347	-0.404418	0.758450
O453	O	1.448681	-0.071085	1.091783
H454	H	0.754143	-0.761968	0.452945
H455	H	1.087477	-0.428634	0.786278
H456	H	1.420810	-0.095301	1.119612
O457	O	0.822183	-0.953555	0.385114
O458	O	1.155516	-0.620221	0.718448
O459	O	1.488850	-0.286888	1.051781
H460	H	0.794311	-0.977771	0.412940
H461	H	1.127644	-0.644438	0.746274
H462	H	1.460978	-0.311105	1.079607
H463	H	0.144646	-0.164211	0.374713
H464	H	0.477979	0.169123	0.708047
H465	H	0.811313	0.502456	1.041380
O466	O	0.272025	-0.156648	0.385315
O467	O	0.605359	0.176686	0.718649
O468	O	0.938692	0.510019	1.051982
H469	H	0.238328	-0.136690	0.413225
H470	H	0.571661	0.196644	0.746558
H471	H	0.904995	0.529977	1.079892
H472	H	0.548036	-0.268363	0.229025
H473	H	0.881369	0.064971	0.562358
H474	H	1.214702	0.398304	0.895691
H475	H	0.666749	-0.268378	0.229007
H476	H	1.000082	0.064955	0.562340
H477	H	1.333416	0.398288	0.895673
O478	O	0.915810	-0.132056	0.870178
O479	O	1.249143	0.201278	1.203511
O480	O	1.582476	0.534611	1.536845
H481	H	0.914960	-0.138841	0.921175
H482	H	1.248293	0.194492	1.254508
H483	H	1.581627	0.527825	1.587841
