data_functionalizedCrystal
_audit_creation_method	'MofGen! by Chris Wilmer'
_symmetry_space_group_name_H-M	'P1'
_symmetry_Int_Tables_number	1
_symmetry_cell_setting	triclinic
loop_
_symmetry_equiv_pos_as_xyz
  x,y,z
_cell_length_a	16.109301
_cell_length_b	16.109298
_cell_length_c	14.586319
_cell_angle_alpha	90.001604
_cell_angle_beta	89.998857
_cell_angle_gamma	83.460886
loop_
_atom_site_label
_atom_site_type_symbol
_atom_site_fract_x
_atom_site_fract_y
_atom_site_fract_z
O1	O	1.103129	0.106867	-0.076179
O2	O	0.861067	0.120166	-0.076190
O3	O	0.988749	-0.007514	-0.076191
O4	O	0.975447	0.234548	-0.076178
O5	O	0.988741	-0.007516	0.076290
O6	O	0.861058	0.120164	0.076290
O7	O	1.103121	0.106865	0.076302
Cu8	Cu	0.982089	0.113515	0.090219
Cu9	Cu	0.982099	0.113517	-0.090107
O10	O	0.975438	0.234546	0.076302
C11	C	0.830088	0.119627	0.000048
C12	C	0.737793	0.118011	0.000043
C13	C	0.428794	0.188495	0.000063
C14	C	0.515514	0.190020	0.000058
C15	C	0.535389	0.038531	0.000038
C16	C	0.448670	0.037007	0.000036
C17	C	0.395374	0.111991	0.000054
C18	C	0.568813	0.115041	0.000050
C19	C	0.662839	0.116694	0.000044
C20	C	0.301342	0.110338	0.000058
C21	C	0.988207	-0.038490	0.000046
C22	C	0.986593	-0.130786	0.000035
C23	C	1.134100	0.107405	0.000061
C24	C	1.226395	0.109020	0.000060
C25	C	0.981330	-0.429853	-0.083063
C26	C	0.982858	-0.343134	-0.083070
C27	C	0.982860	-0.343121	0.083173
C28	C	0.981338	-0.429840	0.083179
C29	C	0.980569	-0.473204	0.000058
C30	C	0.983619	-0.299765	0.000046
C31	C	0.985275	-0.205739	0.000039
C32	C	0.978914	-0.567235	0.000064
C33	C	0.975981	0.265522	0.000064
C34	C	0.977595	0.357817	0.000069
N35	N	0.982087	0.113513	0.217051
N36	N	0.982107	0.113512	-0.216939
C37	C	1.038644	0.056995	0.452057
C38	C	1.038646	0.056993	0.548038
C39	C	0.925545	0.170033	0.548048
C40	C	0.925539	0.170031	0.452068
C41	C	0.982093	0.113512	0.404075
C42	C	0.982101	0.113513	0.596036
C43	C	0.982104	0.113511	0.700103
C44	C	0.982090	0.113513	0.300002
H45	H	0.542719	0.252317	0.000065
O46	O	0.587280	-0.034228	0.000070
C47	C	0.729683	-0.099019	0.000016
C48	C	0.671015	-0.016556	-0.000003
H49	H	0.797395	-0.084760	-0.000063
H50	H	0.717593	-0.136684	0.063839
H51	H	0.717487	-0.136667	-0.063787
H52	H	0.683177	0.021159	0.063756
H53	H	0.683117	0.021045	-0.063869
O54	O	0.416340	-0.037386	0.000069
C55	C	0.445197	-0.187482	-0.000008
C56	C	0.481923	-0.103297	-0.000018
H57	H	0.498203	-0.240793	-0.000098
H58	H	0.405122	-0.192044	0.063817
H59	H	0.405068	-0.191929	-0.063809
H60	H	0.522090	-0.098794	0.063739
H61	H	0.521951	-0.098772	-0.063886
O62	O	0.980611	-0.471852	-0.163885
C63	C	0.980685	-0.462696	-0.328776
C64	C	0.981529	-0.415037	-0.237309
H65	H	0.981408	-0.416780	-0.388163
H66	H	1.038128	-0.510912	-0.333011
H67	H	0.921828	-0.495682	-0.332862
H68	H	1.040347	-0.382001	-0.233161
H69	H	0.924046	-0.366869	-0.233112
H70	H	0.983479	-0.307842	-0.150755
O71	O	1.093467	0.002011	0.594688
C72	C	1.111209	-0.111500	0.703086
C73	C	1.049032	-0.049290	0.650298
H74	H	1.075308	-0.152981	0.748074
H75	H	1.151615	-0.151954	0.652336
H76	H	1.152746	-0.075575	0.747979
H77	H	1.007441	-0.085148	0.605404
H78	H	1.008685	-0.008837	0.701098
H79	H	0.983485	-0.307804	0.150847
O80	O	0.377056	0.261353	-0.000092
C81	C	0.333576	0.390388	-0.079054
C82	C	0.392200	0.307897	-0.078998
H83	H	0.345811	0.428049	-0.142832
H84	H	0.265838	0.376209	-0.079114
H85	H	0.345720	0.428003	-0.015209
H86	H	0.380131	0.270241	-0.142832
H87	H	0.459918	0.322134	-0.078890
H88	H	0.980721	-0.465137	0.150870
O89	O	0.870524	0.224823	0.405411
C90	C	0.757013	0.242485	0.297006
C91	C	0.819255	0.180348	0.349806
H92	H	0.715558	0.206551	0.252023
H93	H	0.716537	0.282877	0.347750
H94	H	0.792913	0.284039	0.252108
H95	H	0.783422	0.138739	0.394706
H96	H	0.859730	0.140015	0.299013
H97	H	1.084692	0.010973	0.412983
H98	H	0.879501	0.216050	0.587134
