data_functionalizedCrystal
_audit_creation_method	'MofGen! by Chris Wilmer'
_symmetry_space_group_name_H-M	'P1'
_symmetry_Int_Tables_number	1
_symmetry_cell_setting	triclinic
loop_
_symmetry_equiv_pos_as_xyz
  x,y,z
_cell_length_a	19.288864
_cell_length_b	15.944551
_cell_length_c	17.766277
_cell_angle_alpha	89.992686
_cell_angle_beta	89.976791
_cell_angle_gamma	83.317492
loop_
_atom_site_label
_atom_site_type_symbol
_atom_site_fract_x
_atom_site_fract_y
_atom_site_fract_z
O1	O	0.921629	0.104784	-0.062837
O2	O	1.421629	0.604784	0.437163
O3	O	0.719406	0.118919	-0.062786
O4	O	1.219406	0.618919	0.437214
O5	O	0.826040	-0.010445	-0.062806
O6	O	1.326040	0.489555	0.437194
O7	O	0.814995	0.234147	-0.062817
O8	O	1.314995	0.734147	0.437183
O9	O	0.826021	-0.010451	0.062382
O10	O	1.326021	0.489549	0.562382
O11	O	0.719387	0.118912	0.062403
O12	O	1.219387	0.618912	0.562403
O13	O	0.921610	0.104777	0.062351
O14	O	1.421610	0.604777	0.562351
Cu15	Cu	0.820497	0.111844	0.073808
Cu16	Cu	1.320497	0.611844	0.573808
Cu17	Cu	0.820519	0.111852	-0.074242
Cu18	Cu	1.320519	0.611852	0.425758
O19	O	0.814976	0.234141	0.062372
O20	O	1.314976	0.734141	0.562372
C21	C	0.693519	0.118461	-0.000185
C22	C	1.193519	0.618461	0.499815
C23	C	0.616411	0.117095	-0.000165
C24	C	1.116411	0.617095	0.499835
C25	C	0.571915	0.193000	-0.000181
C26	C	1.071915	0.693000	0.499819
C27	C	0.499465	0.191717	-0.000189
C28	C	0.999465	0.691717	0.499811
C29	C	0.471514	0.114526	-0.000197
C30	C	0.971514	0.614526	0.499803
C31	C	0.516020	0.038611	-0.000178
C32	C	1.016020	0.538611	0.499822
C33	C	0.588469	0.039896	-0.000162
C34	C	1.088469	0.539896	0.499838
C35	C	0.363099	0.053847	-0.044079
C36	C	0.863099	0.553847	0.455921
C37	C	0.290651	0.052565	-0.044099
C38	C	0.790651	0.552565	0.455901
C39	C	0.248058	0.110560	-0.000242
C40	C	0.748058	0.610560	0.499758
C41	C	0.277920	0.169850	0.043625
C42	C	0.777920	0.669850	0.543625
C43	C	0.350369	0.171135	0.043641
C44	C	0.850369	0.671135	0.543641
C45	C	0.392956	0.113124	-0.000214
C46	C	0.892956	0.613124	0.499786
C47	C	0.125002	0.185079	-0.000265
C48	C	0.625002	0.685079	0.499735
C49	C	0.052550	0.183793	-0.000269
C50	C	0.552550	0.683793	0.499731
C51	C	0.069107	0.030684	-0.000265
C52	C	0.569107	0.530684	0.499735
C53	C	0.141557	0.031972	-0.000254
C54	C	0.641557	0.531972	0.499746
C55	C	0.169500	0.109172	-0.000258
C56	C	0.669500	0.609172	0.499742
C57	C	0.825572	-0.041740	-0.000212
C58	C	1.325572	0.458260	0.499788
C59	C	0.824197	-0.134981	-0.000211
C60	C	1.324197	0.365019	0.499789
C61	C	0.754815	-0.349571	-0.000204
C62	C	1.254815	0.150429	0.499796
C63	C	0.787024	-0.410715	0.061514
C64	C	1.287024	0.089285	0.561514
C65	C	0.821710	-0.305697	-0.000216
C66	C	1.321710	0.194303	0.499784
C67	C	0.787059	-0.410692	-0.061912
C68	C	1.287059	0.089308	0.438088
C69	C	0.819303	-0.470601	-0.000224
C70	C	1.319303	0.029399	0.499776
C71	C	0.853938	-0.365614	0.061552
C72	C	1.353938	0.134386	0.561552
C73	C	0.853963	-0.365585	-0.061929
C74	C	1.353963	0.134415	0.438071
C75	C	0.886222	-0.426712	-0.000197
C76	C	1.386222	0.073288	0.499803
C77	C	0.823095	-0.210700	-0.000211
C78	C	1.323095	0.289300	0.499789
C79	C	0.817924	-0.565597	-0.000224
C80	C	1.317924	-0.065597	0.499776
C81	C	0.947497	0.105235	-0.000251
C82	C	1.447497	0.605235	0.499749
C83	C	1.024605	0.106600	-0.000276
C84	C	1.524605	0.606600	0.499724
C85	C	0.815444	0.265436	-0.000225
C86	C	1.315444	0.765436	0.499775
C87	C	0.816819	0.358677	-0.000230
C88	C	1.316819	0.858677	0.499770
N89	N	0.820486	0.111838	0.177938
N90	N	1.320486	0.611838	0.677938
N91	N	0.820535	0.111851	-0.178373
N92	N	1.320535	0.611851	0.321627
C93	C	0.867719	0.054584	0.217316
C94	C	1.367719	0.554584	0.717316
C95	C	0.867723	0.054580	0.296118
C96	C	1.367723	0.554580	0.796118
C97	C	0.820501	0.111845	0.335539
C98	C	1.320501	0.611845	0.835539
C99	C	0.773259	0.169103	0.296151
C100	C	1.273259	0.669103	0.796151
C101	C	0.773252	0.169100	0.217351
C102	C	1.273252	0.669100	0.717351
C103	C	0.811404	0.188378	0.460375
C104	C	1.311404	0.688378	0.960375
C105	C	0.811416	0.188382	0.539173
C106	C	1.311416	0.688382	1.039173
C107	C	0.820520	0.111855	0.578585
C108	C	1.320520	0.611855	1.078585
C109	C	0.829626	0.035319	0.539188
C110	C	1.329626	0.535319	1.039188
C111	C	0.829618	0.035316	0.460387
C112	C	1.329618	0.535316	0.960387
C113	C	0.820503	0.111854	0.420984
C114	C	1.320503	0.611854	0.920984
C115	C	0.867759	0.054592	0.703409
C116	C	1.367759	0.554592	1.203409
C117	C	0.867759	0.054587	0.782212
C118	C	1.367759	0.554587	1.282212
C119	C	0.773298	0.169117	0.782244
C120	C	1.273298	0.669117	1.282244
C121	C	0.773295	0.169115	0.703442
C122	C	1.273295	0.669115	1.203442
C123	C	0.820530	0.111853	0.664029
C124	C	1.320530	0.611853	1.164029
H125	H	0.243242	0.217075	0.079338
H126	H	0.743242	0.717075	0.579338
H127	H	0.906219	0.007963	0.671318
H128	H	1.406219	0.507963	1.171318
Cl129	Cl	0.972023	-0.478241	-0.000168
Cl130	Cl	1.472023	0.021759	0.499832
Cl131	Cl	0.927108	-0.017403	0.345630
Cl132	Cl	1.427108	0.482597	0.845630
Cl133	Cl	0.897622	-0.334665	-0.142513
Cl134	Cl	1.397622	0.165335	0.357487
Cl135	Cl	0.927138	-0.017401	0.831719
Cl136	Cl	1.427138	0.482599	1.331719
Cl137	Cl	0.743369	-0.441538	-0.142463
Cl138	Cl	1.243369	0.058462	0.357537
Cl139	Cl	0.607039	0.290051	-0.000182
Cl140	Cl	1.107039	0.790051	0.499818
Cl141	Cl	0.713891	0.241090	0.345707
Cl142	Cl	1.213891	0.741090	0.845707
Cl143	Cl	0.644410	-0.055535	-0.000143
Cl144	Cl	1.144410	0.444465	0.499857
H145	H	0.734837	0.215740	0.671378
H146	H	1.234837	0.715740	1.171378
H147	H	0.803978	0.250700	0.428292
H148	H	1.303978	0.750700	0.928292
H149	H	0.463229	0.253530	-0.000199
H150	H	0.963229	0.753530	0.499801
Cl151	Cl	0.253116	-0.021963	-0.099254
Cl152	Cl	0.753116	0.478037	0.400746
H153	H	0.397773	0.006619	-0.079797
H154	H	0.897773	0.506619	0.420203
H155	H	0.804006	0.250702	0.571244
H156	H	1.304006	0.750702	1.071244
H157	H	0.906179	0.007956	0.185228
H158	H	1.406179	0.507956	0.685228
Cl159	Cl	0.033976	-0.066358	-0.000267
Cl160	Cl	0.533976	0.433642	0.499733
H161	H	0.493258	-0.024239	-0.000195
H162	H	0.993258	0.475761	0.499805
Cl163	Cl	0.669087	-0.297815	-0.000092
Cl164	Cl	1.169087	0.202185	0.499908
Cl165	Cl	0.841058	-0.060895	0.410862
Cl166	Cl	1.341058	0.439105	0.910862
Cl167	Cl	0.197499	-0.063457	-0.000240
Cl168	Cl	0.697499	0.436543	0.499760
H169	H	0.374680	0.219409	0.079362
H170	H	0.874680	0.719409	0.579362
Cl171	Cl	0.743331	-0.441598	0.142093
Cl172	Cl	1.243331	0.058402	0.642093
H173	H	0.837039	-0.026997	0.571275
H174	H	1.337039	0.473003	1.071275
H175	H	0.147754	0.247939	-0.000257
H176	H	0.647754	0.747939	0.499743
H177	H	0.734788	0.215724	0.185289
H178	H	1.234788	0.715724	0.685289
Cl179	Cl	-0.003390	0.279225	-0.000284
Cl180	Cl	0.496610	0.779225	0.499716
Cl181	Cl	0.897576	-0.334928	0.142198
Cl182	Cl	1.397576	0.165072	0.642198
Cl183	Cl	0.713928	0.241101	0.831796
Cl184	Cl	1.213928	0.741101	1.331796
