data_functionalizedCrystal
_audit_creation_method	'MofGen! by Chris Wilmer'
_symmetry_space_group_name_H-M	'P1'
_symmetry_Int_Tables_number	1
_symmetry_cell_setting	triclinic
loop_
_symmetry_equiv_pos_as_xyz
  x,y,z
_cell_length_a	16.959454
_cell_length_b	12.759401
_cell_length_c	12.759393
_cell_angle_alpha	90.022497
_cell_angle_beta	89.970360
_cell_angle_gamma	89.979103
loop_
_atom_site_label
_atom_site_type_symbol
_atom_site_fract_x
_atom_site_fract_y
_atom_site_fract_z
Zn1	Zn	-0.314626	-1.606227	-0.594070
Zn2	Zn	-0.446825	-1.606102	-0.418393
Zn3	Zn	-0.314666	-1.430526	-0.418400
Zn4	Zn	-0.446768	-1.430501	-0.594025
O5	O	-0.380721	-1.518339	-0.506222
O6	O	-0.332169	-1.753232	-0.570782
O7	O	-0.429335	-1.582769	-0.271373
O8	O	-0.204050	-1.453896	-0.441725
O9	O	-0.429295	-1.753139	-0.441712
O10	O	-0.204020	-1.582983	-0.570789
O11	O	-0.332238	-1.453774	-0.271378
O12	O	-0.332183	-1.283502	-0.441682
O13	O	-0.429199	-1.453854	-0.741052
O14	O	-0.429238	-1.283484	-0.570713
O15	O	-0.332114	-1.582959	-0.741085
O16	O	-0.557428	-1.582745	-0.441669
O17	O	-0.557387	-1.453732	-0.570705
C18	C	-0.380709	-1.245372	-0.506194
C19	C	-0.380723	-1.128595	-0.506207
C20	C	-0.586088	-1.518251	-0.506204
C21	C	-0.673944	-1.518309	-0.506232
C22	C	-0.380646	-1.518418	-0.780256
C23	C	-0.380613	-1.518451	-0.897032
C24	C	-1.045428	-1.451259	-0.573404
C25	C	-1.045412	-1.585711	-0.439147
C26	C	-0.962866	-1.585675	-0.439137
C27	C	-0.921597	-1.518428	-0.506261
C28	C	-0.962874	-1.451218	-0.573394
C29	C	-0.921582	-1.652875	-0.371998
C30	C	-0.839031	-1.652841	-0.371985
C31	C	-0.797761	-1.585599	-0.439114
C32	C	-0.839044	-1.518387	-0.506251
C33	C	-0.797775	-1.451141	-0.573375
C34	C	-0.839056	-1.383934	-0.640518
C35	C	-0.921604	-1.383977	-0.640524
C36	C	-0.715213	-1.585556	-0.439108
C37	C	-0.715222	-1.451100	-0.573365
C38	C	-0.174553	-1.518456	-0.506263
C39	C	-0.086697	-1.518506	-0.506281
C40	C	-0.431336	-1.073751	-0.573286
C41	C	-0.431338	-0.964027	-0.573304
C42	C	-0.330112	-0.964000	-0.439154
C43	C	-0.330107	-1.073722	-0.439142
C44	C	-0.380732	-0.792372	-0.506244
C45	C	-0.380730	-0.909149	-0.506236
C46	C	-0.330053	-1.585681	-0.951913
C47	C	-0.330019	-1.585699	-1.061637
C48	C	-0.431112	-1.451254	-1.061590
C49	C	-0.431141	-1.451232	-0.951868
C50	C	-0.380740	-1.518321	-0.233255
C51	C	-0.380550	-1.518491	-0.116479
H52	H	-0.805446	-1.329176	-0.695166
C53	C	-0.966567	-1.311046	-0.713293
C54	C	-1.047691	-1.325452	-0.698907
C55	C	-1.089138	-1.258274	-0.765909
H56	H	-0.953098	-1.326305	-0.783942
H57	H	-0.953127	-1.240435	-0.697836
H58	H	-1.061125	-1.396046	-0.714372
H59	H	-1.061183	-1.310185	-0.628272
H60	H	-1.075699	-1.187663	-0.750452
H61	H	-1.075663	-1.273539	-0.836553
H62	H	-1.144185	-1.268033	-0.756150
C63	C	-0.794073	-1.725696	-0.299136
C64	C	-0.712947	-1.711256	-0.313476
C65	C	-0.671507	-1.778344	-0.246378
H66	H	-0.807464	-1.796327	-0.314511
H67	H	-0.807595	-1.710353	-0.228509
H68	H	-0.699431	-1.726606	-0.384086
H69	H	-0.699534	-1.640639	-0.298092
H70	H	-0.685028	-1.763000	-0.175751
H71	H	-0.684903	-1.848970	-0.261759
H72	H	-0.616459	-1.768548	-0.256091
H73	H	-0.472549	-1.118425	-0.627896
H74	H	-0.472551	-0.919378	-0.627928
C75	C	-0.275097	-1.658810	-1.121033
C76	C	-0.230870	-1.717687	-1.049521
C77	C	-0.180272	-1.785060	-1.104197
H78	H	-0.240570	-1.618769	-1.163837
H79	H	-0.305308	-1.704632	-1.163817
H80	H	-0.200661	-1.671871	-1.006754
H81	H	-0.265376	-1.757750	-1.006715
H82	H	-0.210483	-1.830882	-1.146981
H83	H	-0.145750	-1.745010	-1.146999
H84	H	-0.150263	-1.825022	-1.055685
H85	H	-1.079043	-1.396544	-0.628073
H86	H	-0.288887	-1.118378	-0.384519
H87	H	-0.288908	-1.640413	-0.907269
C88	C	-0.485943	-1.378396	-1.121318
C89	C	-0.475113	-1.392824	-1.229155
C90	C	-0.525619	-1.325736	-1.284206
H91	H	-0.474425	-1.307766	-1.103453
H92	H	-0.539075	-1.393747	-1.103387
H93	H	-0.421993	-1.377466	-1.247079
H94	H	-0.486636	-1.463440	-1.247052
H95	H	-0.578751	-1.341087	-1.266275
H96	H	-0.514097	-1.255110	-1.266333
H97	H	-0.518283	-1.335523	-1.357379
C98	C	-1.090357	-1.658631	-0.366341
C99	C	-1.171485	-1.644277	-0.380713
C100	C	-1.212916	-1.711426	-0.313649
H101	H	-1.076945	-1.643312	-0.295707
H102	H	-1.076849	-1.729246	-0.381749
H103	H	-1.184987	-1.573678	-0.365297
H104	H	-1.184921	-1.659603	-0.451333
H105	H	-1.199409	-1.782041	-0.329058
H106	H	-1.199498	-1.696101	-0.243020
H107	H	-1.267966	-1.701702	-0.323399
H108	H	-0.681626	-1.396343	-0.628030
H109	H	-0.681606	-1.640270	-0.384436
H110	H	-0.955189	-1.707616	-0.317342
H111	H	-0.288903	-0.919310	-0.384551
H112	H	-0.472313	-1.396477	-0.907183
