data_functionalizedCrystal
_audit_creation_method	'MofGen! by Chris Wilmer'
_symmetry_space_group_name_H-M	'P1'
_symmetry_Int_Tables_number	1
_symmetry_cell_setting	triclinic
loop_
_symmetry_equiv_pos_as_xyz
  x,y,z
_cell_length_a	17.000383
_cell_length_b	14.044220
_cell_length_c	15.500227
_cell_angle_alpha	86.902009
_cell_angle_beta	87.396892
_cell_angle_gamma	95.605410
loop_
_atom_site_label
_atom_site_type_symbol
_atom_site_fract_x
_atom_site_fract_y
_atom_site_fract_z
O1	O	0.187404	-1.246492	0.071849
O2	O	0.687404	-0.746492	0.571849
O3	O	0.180519	-0.971098	0.071871
O4	O	0.680519	-0.471098	0.571871
O5	O	0.069310	-1.125894	0.071856
O6	O	0.569310	-0.625894	0.571856
O7	O	0.298614	-1.091697	0.071865
O8	O	0.798614	-0.591697	0.571865
O9	O	0.076030	-1.116503	-0.072032
O10	O	0.576030	-0.616503	0.427968
O11	O	0.187239	-0.961707	-0.072016
O12	O	0.687239	-0.461707	0.427984
O13	O	0.194124	-1.237101	-0.072038
O14	O	0.694124	-0.737101	0.427962
Cu15	Cu	0.191295	-1.098547	-0.085165
Cu16	Cu	0.691295	-0.598547	0.414835
Cu17	Cu	0.183348	-1.109653	0.084998
Cu18	Cu	0.683348	-0.609653	0.584998
O19	O	0.305333	-1.082306	-0.072023
O20	O	0.805333	-0.582306	0.427977
C21	C	0.180866	-0.931340	-0.000070
C22	C	0.680866	-0.431340	0.499930
C23	C	0.171878	-0.826863	-0.000061
C24	C	0.671878	-0.326863	0.499939
C25	C	0.043146	-1.123035	-0.000087
C26	C	0.543146	-0.623035	0.499913
C27	C	-0.044824	-1.128496	-0.000085
C28	C	0.455176	-0.628496	0.499915
C29	C	0.193777	-1.276860	-0.000095
C30	C	0.693777	-0.776860	0.499905
C31	C	0.202765	-1.381337	-0.000098
C32	C	0.702765	-0.881337	0.499902
C33	C	-0.542538	-1.163761	-0.000084
C34	C	-0.042538	-0.663761	0.499916
C35	C	-0.459879	-1.158622	-0.000089
C36	C	0.040121	-0.658622	0.499911
C37	C	-0.415218	-1.069425	-0.000078
C38	C	0.084782	-0.569425	0.499922
C39	C	-0.453219	-0.985362	-0.000071
C40	C	0.046781	-0.485362	0.499929
C41	C	-0.535875	-0.990502	-0.000072
C42	C	-0.035875	-0.490502	0.499928
C43	C	-0.165482	-1.049573	-0.000079
C44	C	0.334518	-0.549573	0.499921
C45	C	-0.082820	-1.044439	-0.000075
C46	C	0.417180	-0.544439	0.499925
C47	C	-0.089486	-1.217700	-0.000095
C48	C	0.410514	-0.717700	0.499905
C49	C	-0.172144	-1.222832	-0.000091
C50	C	0.327856	-0.722832	0.499909
C51	C	-0.210137	-1.138768	-0.000089
C52	C	0.289863	-0.638768	0.499911
C53	C	-0.330728	-1.064170	-0.000080
C54	C	0.169272	-0.564170	0.499920
C55	C	-0.294625	-1.144024	-0.000093
C56	C	0.205375	-0.644024	0.499907
C57	C	0.331497	-1.085165	-0.000078
C58	C	0.831497	-0.585165	0.499922
C59	C	0.419467	-1.079704	-0.000075
C60	C	0.919467	-0.579704	0.499925
N61	N	0.196884	-1.090743	-0.204850
N62	N	0.696884	-0.590743	0.295150
C63	C	0.155447	-0.635570	-0.000079
C64	C	0.655447	-0.135570	0.499921
C65	C	0.219193	-0.572625	-0.000080
C66	C	0.719193	-0.072625	0.499920
C67	C	0.210050	-0.466183	-0.000090
C68	C	0.710050	0.033817	0.499910
C69	C	0.164588	-0.742023	-0.000069
C70	C	0.664588	-0.242023	0.499931
C71	C	0.149781	-1.156354	-0.250133
C72	C	0.649781	-0.656354	0.249867
C73	C	0.154016	-1.150460	-0.340705
C74	C	0.654016	-0.650460	0.159295
C75	C	0.205359	-1.078957	-0.385992
C76	C	0.705359	-0.578957	0.114008
C77	C	0.252463	-1.013339	-0.340703
C78	C	0.752463	-0.513339	0.159297
C79	C	0.248224	-1.019230	-0.250132
C80	C	0.748224	-0.519230	0.249868
C81	C	0.220618	-1.057737	-0.659457
C82	C	0.720618	-0.557737	-0.159457
C83	C	0.224856	-1.051853	-0.750034
C84	C	0.724856	-0.551853	-0.250034
C85	C	0.126407	-1.188974	-0.750030
C86	C	0.626407	-0.688974	-0.250030
C87	C	0.122176	-1.194862	-0.659458
C88	C	0.622176	-0.694862	-0.159458
C89	C	0.169277	-1.129241	-0.614176
C90	C	0.669277	-0.629241	-0.114176
C91	C	0.209691	-1.072933	-0.478572
C92	C	0.709691	-0.572933	0.021428
C93	C	0.164941	-1.135262	-0.521598
C94	C	0.664941	-0.635262	-0.021598
N95	N	0.177753	-1.117465	0.204683
N96	N	0.677753	-0.617465	0.704683
H97	H	-0.578896	-1.236395	-0.000086
H98	H	-0.078896	-0.736395	0.499914
Cl99	Cl	-0.350772	-1.256152	-0.000112
Cl100	Cl	0.149228	-0.756152	0.499888
Cl101	Cl	0.057631	-1.284753	-0.602525
Cl102	Cl	0.557631	-0.784753	-0.102525
H103	H	-0.294356	-0.991547	-0.000068
H104	H	0.205644	-0.491547	0.499932
Cl105	Cl	0.274237	-0.983047	-0.535508
Cl106	Cl	0.774237	-0.483047	-0.035508
H107	H	0.294265	-0.955115	-0.377581
H108	H	0.794265	-0.455115	0.122419
H109	H	0.280634	-0.598676	-0.000073
H110	H	0.780634	-0.098676	0.499927
H111	H	0.266669	-0.993624	-0.786903
H112	H	0.766669	-0.493624	-0.286903
Cl113	Cl	0.085237	-1.246253	-0.193210
Cl114	Cl	0.585237	-0.746253	0.306790
Cl115	Cl	0.060591	-0.595352	-0.000085
Cl116	Cl	0.560591	-0.095352	0.499915
H117	H	0.115661	-1.203886	-0.377574
H118	H	0.615661	-0.703886	0.122426
Cl119	Cl	0.307439	-0.936739	-0.193205
Cl120	Cl	0.807439	-0.436739	0.306795
H121	H	-0.416848	-0.912736	-0.000067
H122	H	0.083152	-0.412736	0.499933
Cl123	Cl	-0.583640	-0.884825	-0.000065
Cl124	Cl	-0.083640	-0.384825	0.499935
Cl125	Cl	-0.213234	-0.943892	-0.000067
Cl126	Cl	0.286766	-0.443892	0.499933
H127	H	0.088059	-1.242399	-0.786907
H128	H	0.588059	-0.742399	-0.286907
H129	H	0.123135	-1.193476	-0.484723
H130	H	0.623135	-0.693476	0.015277
Cl131	Cl	-0.412118	-1.264300	-0.000079
Cl132	Cl	0.087882	-0.764300	0.499921
Cl133	Cl	-0.228284	-1.334969	-0.000109
Cl134	Cl	0.271716	-0.834969	0.499891
H135	H	0.258972	-1.004307	-0.622596
H136	H	0.758972	-0.504307	-0.122596
H137	H	-0.046458	-0.971801	-0.000069
H138	H	0.453542	-0.471801	0.499931
Cl139	Cl	-0.041718	-1.323372	-0.000103
Cl140	Cl	0.458282	-0.823372	0.499897
