data_functionalizedCrystal
_audit_creation_method	'MofGen! by Chris Wilmer'
_symmetry_space_group_name_H-M	'P1'
_symmetry_Int_Tables_number	1
_symmetry_cell_setting	triclinic
loop_
_symmetry_equiv_pos_as_xyz
  x,y,z
_cell_length_a	19.288840
_cell_length_b	19.188930
_cell_length_c	18.366186
_cell_angle_alpha	90.011368
_cell_angle_beta	90.016271
_cell_angle_gamma	83.135398
loop_
_atom_site_label
_atom_site_type_symbol
_atom_site_fract_x
_atom_site_fract_y
_atom_site_fract_z
O1	O	0.921370	0.087016	0.060679
O2	O	1.254704	0.420349	0.394013
O3	O	1.588037	0.753683	0.727346
O4	O	0.719108	0.098784	0.060655
O5	O	1.052441	0.432117	0.393989
O6	O	1.385775	0.765450	0.727322
O7	O	0.826076	-0.008757	0.060654
O8	O	1.159409	0.324576	0.393987
O9	O	1.492743	0.657910	0.727320
O10	O	0.814402	0.194556	0.060681
O11	O	1.147736	0.527890	0.394014
O12	O	1.481069	0.861223	0.727347
O13	O	0.826058	-0.008762	-0.060446
O14	O	1.159391	0.324571	0.272888
O15	O	1.492725	0.657905	0.606221
O16	O	0.719090	0.098778	-0.060444
O17	O	1.052423	0.432112	0.272889
O18	O	1.385757	0.765445	0.606223
O19	O	0.921352	0.087011	-0.060420
O20	O	1.254686	0.420344	0.272913
O21	O	1.588019	0.753677	0.606247
Zn22	Zn	0.820218	0.092894	-0.079659
Zn23	Zn	1.153552	0.426227	0.253674
Zn24	Zn	1.486885	0.759560	0.587007
Zn25	Zn	0.820242	0.092901	0.079894
Zn26	Zn	1.153575	0.426234	0.413228
Zn27	Zn	1.486909	0.759567	0.746561
O28	O	0.814384	0.194551	-0.060419
O29	O	1.147718	0.527884	0.272915
O30	O	1.481051	0.861218	0.606248
C31	C	0.693222	0.098405	0.000102
C32	C	1.026556	0.431739	0.333436
C33	C	1.359889	0.765072	0.666769
C34	C	0.616118	0.097277	0.000092
C35	C	0.949451	0.430611	0.333426
C36	C	1.282784	0.763944	0.666759
C37	C	0.579924	0.096738	0.066105
C38	C	0.913257	0.430072	0.399439
C39	C	1.246591	0.763405	0.732772
C40	C	0.507477	0.095671	0.066114
C41	C	0.840810	0.429004	0.399448
C42	C	1.174144	0.762338	0.732781
C43	C	0.471228	0.095128	0.000106
C44	C	0.804562	0.428462	0.333440
C45	C	1.137895	0.761795	0.666773
C46	C	0.507430	0.095671	-0.065916
C47	C	0.840764	0.429005	0.267418
C48	C	1.174097	0.762338	0.600751
C49	C	0.579875	0.096746	-0.065922
C50	C	0.913208	0.430079	0.267411
C51	C	1.246542	0.763413	0.600744
C52	C	0.361890	0.052528	-0.050461
C53	C	0.695223	0.385861	0.282873
C54	C	1.028557	0.719195	0.616206
C55	C	0.289447	0.051449	-0.050451
C56	C	0.622781	0.384782	0.282882
C57	C	0.956114	0.718116	0.616216
C58	C	0.247784	0.091817	0.000125
C59	C	0.581118	0.425150	0.333458
C60	C	0.914451	0.758484	0.666791
C61	C	0.278575	0.133255	0.050703
C62	C	0.611908	0.466588	0.384037
C63	C	0.945241	0.799922	0.717370
C64	C	0.351019	0.134330	0.050696
C65	C	0.684353	0.467663	0.384030
C66	C	1.017686	0.800996	0.717363
C67	C	0.392674	0.093963	0.000106
C68	C	0.726008	0.427297	0.333440
C69	C	1.059341	0.760630	0.666773
C70	C	0.133035	0.090121	0.066152
C71	C	0.466369	0.423455	0.399485
C72	C	0.799702	0.756788	0.732819
C73	C	0.060586	0.089058	0.066158
C74	C	0.393920	0.422392	0.399491
C75	C	0.727253	0.755725	0.732825
C76	C	0.060542	0.089052	-0.065874
C77	C	0.393875	0.422385	0.267460
C78	C	0.727209	0.755718	0.600793
C79	C	0.132989	0.090122	-0.065878
C80	C	0.466322	0.423455	0.267455
C81	C	0.799655	0.756789	0.600789
C82	C	0.169231	0.090653	0.000137
C83	C	0.502565	0.423987	0.333470
C84	C	0.835898	0.757320	0.666804
C85	C	0.825689	-0.034770	0.000102
C86	C	1.159022	0.298563	0.333435
C87	C	1.492356	0.631896	0.666769
C88	C	0.824554	-0.112275	0.000096
C89	C	1.157887	0.221059	0.333429
C90	C	1.491221	0.554392	0.666762
C91	C	0.887319	-0.157209	0.000100
C92	C	1.220653	0.176124	0.333433
C93	C	1.553986	0.509458	0.666766
C94	C	0.886253	-0.230033	0.000111
C95	C	1.219587	0.103301	0.333444
C96	C	1.552920	0.436634	0.666778
C97	C	0.822418	-0.257919	0.000104
C98	C	1.155752	0.075415	0.333437
C99	C	1.489085	0.408748	0.666771
C100	C	0.759645	-0.212975	0.000104
C101	C	1.092978	0.120359	0.333437
C102	C	1.426311	0.453692	0.666771
C103	C	0.760713	-0.140153	0.000100
C104	C	1.094046	0.193181	0.333433
C105	C	1.427379	0.526514	0.666767
N106	N	0.773618	-0.365917	-0.041114
N107	N	1.106951	-0.032584	0.292219
N108	N	1.440285	0.300749	0.625552
N109	N	0.772608	-0.435096	-0.041112
N110	N	1.105941	-0.101763	0.292222
N111	N	1.439274	0.231571	0.625555
C112	C	0.819197	-0.477327	0.000118
C113	C	1.152530	-0.143994	0.333452
C114	C	1.485864	0.189340	0.666785
N115	N	0.866845	-0.447767	0.041337
N116	N	1.200178	-0.114434	0.374670
N117	N	1.533512	0.218899	0.708003
N118	N	0.867857	-0.378583	0.041331
N119	N	1.201191	-0.045250	0.374664
N120	N	1.534524	0.288084	0.707998
C121	C	0.821253	-0.336881	0.000109
C122	C	1.154587	-0.003548	0.333442
C123	C	1.487920	0.329786	0.666776
C124	C	0.880811	-0.601225	0.000136
C125	C	1.214144	-0.267892	0.333469
C126	C	1.547477	0.065441	0.666803
C127	C	0.879742	-0.674050	0.000152
C128	C	1.213075	-0.340717	0.333485
C129	C	1.546408	-0.007383	0.666819
C130	C	0.753131	-0.656990	0.000138
C131	C	1.086465	-0.323657	0.333471
C132	C	1.419798	0.009676	0.666804
C133	C	0.754202	-0.584167	0.000129
C134	C	1.087535	-0.250834	0.333462
C135	C	1.420869	0.082499	0.666796
C136	C	0.818043	-0.556289	0.000125
C137	C	1.151377	-0.222956	0.333458
C138	C	1.484710	0.110377	0.666791
C139	C	0.947238	0.087389	0.000135
C140	C	1.280571	0.420722	0.333468
C141	C	1.613905	0.754056	0.666801
C142	C	1.024343	0.088517	0.000149
C143	C	1.357676	0.421850	0.333483
C144	C	1.691009	0.755184	0.666816
C145	C	0.814771	0.220565	0.000135
C146	C	1.148105	0.553898	0.333468
C147	C	1.481438	0.887231	0.666802
C148	C	0.815906	0.298069	0.000146
C149	C	1.149239	0.631402	0.333479
C150	C	1.482573	0.964736	0.666813
N151	N	0.820207	0.092888	-0.188550
N152	N	1.153540	0.426222	0.144783
N153	N	1.486874	0.759555	0.478116
C154	C	0.867588	0.045293	-0.226651
C155	C	1.200921	0.378626	0.106682
C156	C	1.534255	0.711960	0.440015
C157	C	0.867592	0.045290	-0.302879
C158	C	1.200926	0.378623	0.030454
C159	C	1.534259	0.711956	0.363787
C160	C	0.820222	0.092894	-0.341003
C161	C	1.153556	0.426228	-0.007670
C162	C	1.486889	0.759561	0.325664
C163	C	0.772833	0.140494	-0.302893
C164	C	1.106166	0.473827	0.030440
C165	C	1.439499	0.807160	0.363774
C166	C	0.772825	0.140491	-0.226666
C167	C	1.106158	0.473824	0.106667
C168	C	1.439492	0.807157	0.440000
C169	C	0.810929	0.156512	-0.461756
C170	C	1.144262	0.489845	-0.128422
C171	C	1.477596	0.823179	0.204911
C172	C	0.810941	0.156516	-0.537981
C173	C	1.144275	0.489849	-0.204647
C174	C	1.477608	0.823182	0.128686
C175	C	0.820242	0.092903	-0.576111
C176	C	1.153575	0.426236	-0.242777
C177	C	1.486909	0.759570	0.090556
C178	C	0.829545	0.029284	-0.538006
C179	C	1.162878	0.362617	-0.204673
C180	C	1.496212	0.695950	0.128660
C181	C	0.829537	0.029281	-0.461780
C182	C	1.162871	0.362614	-0.128447
C183	C	1.496204	0.695947	0.204887
C184	C	0.820225	0.092902	-0.423658
C185	C	1.153559	0.426236	-0.090324
C186	C	1.486892	0.759569	0.243009
C187	C	0.867630	0.045300	-0.696867
C188	C	1.200964	0.378633	-0.363533
C189	C	1.534297	0.711967	-0.030200
C190	C	0.867630	0.045296	-0.773096
C191	C	1.200963	0.378629	-0.439762
C192	C	1.534297	0.711963	-0.106429
C193	C	0.772874	0.140506	-0.773108
C194	C	1.106207	0.473839	-0.439775
C195	C	1.439540	0.807172	-0.106441
C196	C	0.772871	0.140504	-0.696880
C197	C	1.106204	0.473837	-0.363547
C198	C	1.439537	0.807170	-0.030214
C199	C	0.820253	0.092902	-0.658764
C200	C	1.153586	0.426235	-0.325431
C201	C	1.486919	0.759568	0.007903
N202	N	0.820259	0.092900	0.188786
N203	N	1.153592	0.426234	0.522119
N204	N	1.486926	0.759567	0.855452
H205	H	0.244654	0.166129	0.091885
H206	H	0.577987	0.499463	0.425218
H207	H	0.911320	0.832796	0.758551
H208	H	0.930855	-0.710636	0.000159
H209	H	1.264188	-0.377302	0.333493
H210	H	1.597522	-0.043969	0.666826
H211	H	0.939304	-0.134516	0.000099
H212	H	1.272637	0.198817	0.333432
H213	H	1.605971	0.532150	0.666765
H214	H	0.837118	-0.022516	-0.569050
H215	H	1.170452	0.310817	-0.235717
H216	H	1.503785	0.644151	0.097617
H217	H	0.906210	0.006537	-0.665831
H218	H	1.239543	0.339871	-0.332498
H219	H	1.572876	0.673204	0.000835
H220	H	0.701156	-0.679694	0.000135
H221	H	1.034489	-0.346361	0.333469
H222	H	1.367822	-0.013027	0.666802
H223	H	0.162458	0.090556	-0.119633
H224	H	0.495792	0.423889	0.213700
H225	H	0.829125	0.757223	0.547034
H226	H	0.703092	-0.547580	0.000122
H227	H	1.036425	-0.214247	0.333455
H228	H	1.369758	0.119086	0.666788
H229	H	0.937366	-0.266625	0.000117
H230	H	1.270699	0.066708	0.333451
H231	H	1.604033	0.400041	0.666784
H232	H	0.906177	0.006530	-0.333907
H233	H	1.239510	0.339863	-0.000573
H234	H	1.572843	0.673197	0.332760
H235	H	0.478002	0.095233	0.119872
H236	H	0.811336	0.428566	0.453205
H237	H	1.144669	0.761900	0.786538
H238	H	0.734241	0.179249	-0.195644
H239	H	1.067574	0.512583	0.137689
H240	H	1.400908	0.845916	0.471023
H241	H	0.707670	-0.235684	0.000100
H242	H	1.041003	0.097649	0.333433
H243	H	1.374336	0.430983	0.666767
H244	H	0.906167	0.006531	-0.195619
H245	H	1.239501	0.339864	0.137714
H246	H	1.572834	0.673198	0.471047
H247	H	0.837110	-0.022520	-0.430758
H248	H	1.170444	0.310813	-0.097425
H249	H	1.503777	0.644146	0.235908
H250	H	0.162545	0.090562	0.119905
H251	H	0.495878	0.423895	0.453238
H252	H	0.829211	0.757228	0.786572
H253	H	0.031118	0.088624	0.119916
H254	H	0.364452	0.421957	0.453249
H255	H	0.697785	0.755290	0.786583
H256	H	0.709600	-0.103566	0.000096
H257	H	1.042933	0.229767	0.333430
H258	H	1.376267	0.563101	0.666763
H259	H	0.734302	0.179264	-0.804148
H260	H	1.067635	0.512597	-0.470815
H261	H	1.400968	0.845930	-0.137481
H262	H	0.906211	0.006534	-0.804118
H263	H	1.239544	0.339867	-0.470785
H264	H	1.572878	0.673201	-0.137452
H265	H	0.734292	0.179263	-0.665856
H266	H	1.067625	0.512597	-0.332523
H267	H	1.400958	0.845930	0.000810
H268	H	0.477912	0.095231	-0.119660
H269	H	0.811245	0.428564	0.213674
H270	H	1.144578	0.761898	0.547007
H271	H	0.031029	0.088614	-0.119619
H272	H	0.364362	0.421947	0.213714
H273	H	0.697695	0.755281	0.547048
H274	H	0.609343	0.097185	-0.119680
H275	H	0.942677	0.430519	0.213653
H276	H	1.276010	0.763852	0.546987
H277	H	0.264384	0.017704	-0.091632
H278	H	0.597718	0.351038	0.241702
H279	H	0.931051	0.684371	0.575035
H280	H	0.932794	-0.578526	0.000136
H281	H	1.266127	-0.245193	0.333469
H282	H	1.599461	0.088140	0.666802
H283	H	0.395807	0.019654	-0.091649
H284	H	0.729140	0.352987	0.241684
H285	H	1.062473	0.686320	0.575018
H286	H	0.803371	0.208318	-0.568999
H287	H	1.136704	0.541652	-0.235666
H288	H	1.470038	0.874985	0.097667
H289	H	0.734262	0.179253	-0.333937
H290	H	1.067596	0.512586	-0.000604
H291	H	1.400929	0.845919	0.332730
H292	H	0.609428	0.097171	0.119860
H293	H	0.942762	0.430505	0.453193
H294	H	1.276095	0.763838	0.786527
H295	H	0.376085	0.168071	0.091877
H296	H	0.709419	0.501405	0.425211
H297	H	1.042752	0.834738	0.758544
H298	H	0.803343	0.208317	-0.430716
H299	H	1.136676	0.541650	-0.097383
H300	H	1.470010	0.874983	0.235950
