data_functionalizedCrystal
_audit_creation_method	'MofGen! by Chris Wilmer'
_symmetry_space_group_name_H-M	'P1'
_symmetry_Int_Tables_number	1
_symmetry_cell_setting	triclinic
loop_
_symmetry_equiv_pos_as_xyz
  x,y,z
_cell_length_a	11.792241
_cell_length_b	15.021413
_cell_length_c	15.944493
_cell_angle_alpha	90.009890
_cell_angle_beta	96.165771
_cell_angle_gamma	90.003164
loop_
_atom_site_label
_atom_site_type_symbol
_atom_site_fract_x
_atom_site_fract_y
_atom_site_fract_z
O1	O	1.505934	0.073933	-0.115119
O2	O	1.175492	0.073953	-0.126985
O3	O	1.349771	0.073950	0.001185
O4	O	1.331655	0.073936	-0.243289
O5	O	1.349743	-0.074114	0.001167
O6	O	1.175464	-0.074112	-0.127003
O7	O	1.505906	-0.074131	-0.115138
Zn8	Zn	1.340681	-0.097630	-0.121073
Zn9	Zn	1.340717	0.097451	-0.121049
O10	O	1.331627	-0.074128	-0.243308
C11	C	1.133194	-0.000077	-0.126249
C12	C	1.007199	-0.000069	-0.124018
N13	N	1.340664	-0.230767	-0.121089
C14	C	0.776522	-0.000094	-0.119916
C15	C	0.904887	-0.000080	-0.122195
C16	C	1.260065	-0.470449	-0.180327
C17	C	1.362618	-0.529791	-0.197097
C18	C	1.340693	-0.412374	-0.121068
C19	C	1.238168	-0.529774	-0.104317
C20	C	1.340712	-0.587798	-0.121050
C21	C	1.443298	-0.470410	-0.137877
C22	C	1.318781	-0.470387	-0.045063
C23	C	1.421408	-0.529702	-0.061802
C24	C	1.340681	-0.311317	-0.121081
C25	C	1.340736	-0.688854	-0.121037
C26	C	1.548205	-0.000100	-0.115874
C27	C	1.674200	-0.000102	-0.118105
C28	C	1.349017	-0.000079	0.032474
C29	C	1.346797	-0.000067	0.125733
N30	N	1.340743	0.230589	-0.121027
C31	C	1.332382	-0.000098	-0.274597
C32	C	1.334602	-0.000104	-0.367855
C33	C	1.449381	-0.000090	0.361030
C34	C	1.394075	0.072916	0.411856
C35	C	1.342684	-0.000078	0.296472
C36	C	1.394023	-0.073064	0.411815
C37	C	1.338719	-0.000092	0.461400
C38	C	1.287406	0.072989	0.346071
C39	C	1.287370	-0.073057	0.346025
C40	C	1.231985	-0.000033	0.396820
C41	C	1.344971	-0.000069	0.201462
C42	C	1.336423	-0.000094	0.556407
H43	H	1.381169	-0.555883	-0.261365
O44	O	1.110154	0.000010	0.417864
H45	H	1.065642	-0.060029	0.390326
H46	H	1.191950	-0.444433	-0.230481
O47	O	1.123311	-0.564318	-0.085558
H48	H	1.133930	-0.604948	-0.027103
H49	H	1.439147	0.134633	0.440606
H50	H	1.541288	-0.000022	0.344986
H51	H	1.242337	-0.134776	0.317260
O52	O	1.558185	-0.436027	-0.156741
H53	H	1.557260	-0.362140	-0.156634
O54	O	1.511824	-0.563968	0.004590
H55	H	1.596800	-0.540065	-0.009512
O56	O	1.294169	-0.435797	0.040042
H57	H	1.367332	-0.395150	0.067899
O58	O	1.227781	0.154843	0.308188
H59	H	1.229966	0.154224	0.238770
H60	H	1.439094	-0.134781	0.440535
