data_functionalizedCrystal
_audit_creation_method	'MofGen! by Chris Wilmer'
_symmetry_space_group_name_H-M	'P1'
_symmetry_Int_Tables_number	1
_symmetry_cell_setting	triclinic
loop_
_symmetry_equiv_pos_as_xyz
  x,y,z
_cell_length_a	16.992694
_cell_length_b	9.565339
_cell_length_c	16.974813
_cell_angle_alpha	93.654329
_cell_angle_beta	87.024634
_cell_angle_gamma	89.998174
loop_
_atom_site_label
_atom_site_type_symbol
_atom_site_fract_x
_atom_site_fract_y
_atom_site_fract_z
O1	O	1.040210	0.135048	0.167643
O2	O	0.811927	0.134881	0.165803
O3	O	0.932433	0.121980	0.052022
O4	O	0.919705	0.147950	0.281424
O5	O	0.932423	-0.110539	0.052029
O6	O	0.811917	-0.097638	0.165810
O7	O	1.040201	-0.097471	0.167650
Zn8	Zn	0.926058	-0.134472	0.166731
Zn9	Zn	0.926070	0.171882	0.166722
O10	O	0.919695	-0.084570	0.281431
C11	C	0.782712	0.018359	0.163441
C12	C	0.695676	0.017576	0.156381
N13	N	0.926055	-0.343551	0.166737
C14	C	0.645362	0.025286	0.224497
C15	C	0.563582	0.024515	0.217859
C16	C	0.532118	0.016045	0.143105
C17	C	0.582439	0.008330	0.074984
C18	C	0.664216	0.009091	0.081623
C19	C	0.288550	0.012892	0.115590
C20	C	0.206766	0.012136	0.108957
C21	C	0.187915	0.028319	0.251832
C22	C	0.269696	0.029088	0.258464
C23	C	0.320009	0.021366	0.190343
N24	N	0.448527	0.015261	0.136318
N25	N	0.403599	0.022139	0.197131
C26	C	0.870308	-0.428790	0.219338
C27	C	0.941142	-0.519738	0.239156
C28	C	0.855252	-0.530157	0.146927
C29	C	0.996924	-0.432443	0.186594
C30	C	0.910987	-0.442857	0.094330
C31	C	0.981872	-0.533767	0.114122
C32	C	1.069416	0.019054	0.170012
C33	C	1.156452	0.019846	0.177072
C34	C	0.931944	0.002385	0.022537
C35	C	0.930491	-0.007552	-0.065331
N36	N	0.926079	0.380960	0.166710
C37	C	0.929816	0.114525	-0.106611
C38	C	0.928447	0.105184	-0.189172
C39	C	0.927758	-0.026236	-0.230452
C40	C	0.928431	-0.148322	-0.189167
C41	C	0.929795	-0.138979	-0.106607
C42	C	0.923673	-0.067769	-0.477370
C43	C	0.922312	-0.077103	-0.559936
C44	C	0.922326	0.176404	-0.559936
C45	C	0.923694	0.185735	-0.477374
C46	C	0.924363	0.063649	-0.436096
N47	N	0.926361	-0.035787	-0.314843
N48	N	0.925755	0.073202	-0.351706
C49	C	0.920184	0.035028	0.310916
C50	C	0.921636	0.044974	0.398784
H51	H	0.522619	0.030795	0.273326
C52	C	0.930537	-0.273259	-0.061195
H53	H	0.931440	-0.248874	-0.006113
H54	H	0.976009	-0.327241	-0.077863
H55	H	0.884605	-0.326497	-0.071585
C56	C	1.045633	-0.595435	0.054011
H57	H	1.021605	-0.654498	0.015102
H58	H	1.082152	-0.648355	0.080552
H59	H	1.072473	-0.521487	0.029284
H60	H	0.181152	0.005240	0.048080
H61	H	0.930381	0.221541	-0.073007
C62	C	0.927690	0.239469	-0.234576
H63	H	0.928300	0.319074	-0.198167
H64	H	0.881454	0.241447	-0.263633
H65	H	0.972857	0.240743	-0.269930
H66	H	0.795364	-0.573005	0.130184
H67	H	0.556814	0.001413	0.014118
H68	H	0.924256	0.292751	-0.443770
C69	C	1.077842	-0.374796	0.209320
H70	H	1.077330	-0.275491	0.209220
H71	H	1.117468	-0.411606	0.172185
H72	H	1.088638	-0.401706	0.260591
H73	H	0.823208	-0.382886	0.263866
H74	H	0.953903	-0.553777	0.300378
C75	C	0.343884	0.004408	0.040660
H76	H	0.313430	-0.000731	-0.004809
H77	H	0.376181	-0.076718	0.040281
H78	H	0.376174	0.085462	0.040275
H79	H	0.898204	-0.408783	0.033127
C80	C	0.304300	0.038385	0.340693
H81	H	0.262622	0.042852	0.380311
H82	H	0.335809	0.120099	0.346254
H83	H	0.335811	-0.042082	0.346249
H84	H	0.921780	0.275799	-0.593554
C85	C	0.132570	0.036795	0.326757
H86	H	0.079360	0.035117	0.312100
H87	H	0.142094	0.121324	0.357197
H88	H	0.142106	-0.040856	0.357195
C89	C	0.719562	0.000624	0.006696
H90	H	0.689112	-0.004515	-0.038776
H91	H	0.751862	-0.080498	0.006317
H92	H	0.751848	0.081682	0.006316
C93	C	0.921545	-0.221670	-0.605342
H94	H	0.922130	-0.293043	-0.568934
H95	H	0.966711	-0.230956	-0.640690
H96	H	0.875308	-0.230202	-0.634407
C97	C	0.924422	-0.202058	-0.431974
H98	H	0.923828	-0.281661	-0.468387
H99	H	0.879257	-0.203334	-0.396625
H100	H	0.970661	-0.204042	-0.402912
C101	C	0.927670	-0.292884	-0.234568
H102	H	0.928260	-0.364250	-0.198156
H103	H	0.972836	-0.302167	-0.269917
H104	H	0.881433	-0.301428	-0.263632
C105	C	0.679965	0.034605	0.306727
H106	H	0.638284	0.039073	0.346342
H107	H	0.711471	0.116322	0.312285
H108	H	0.711477	-0.045858	0.312288
