data_functionalizedCrystal
_audit_creation_method	'MofGen! by Chris Wilmer'
_symmetry_space_group_name_H-M	'P1'
_symmetry_Int_Tables_number	1
_symmetry_cell_setting	triclinic
loop_
_symmetry_equiv_pos_as_xyz
  x,y,z
_cell_length_a	16.992694
_cell_length_b	8.559649
_cell_length_c	15.455313
_cell_angle_alpha	92.289439
_cell_angle_beta	87.142206
_cell_angle_gamma	80.223444
loop_
_atom_site_label
_atom_site_type_symbol
_atom_site_fract_x
_atom_site_fract_y
_atom_site_fract_z
O1	O	1.023967	0.329735	-0.072017
O2	O	1.523967	0.829735	0.427983
O3	O	0.795905	0.326044	-0.072043
O4	O	1.295905	0.826044	0.427957
O5	O	0.930028	0.097853	-0.072027
O6	O	1.430028	0.597853	0.427973
O7	O	0.889844	0.557925	-0.072033
O8	O	1.389844	1.057925	0.427967
O9	O	0.922362	0.110845	0.072234
O10	O	1.422362	0.610845	0.572234
O11	O	0.788239	0.339035	0.072218
O12	O	1.288239	0.839035	0.572218
O13	O	1.016301	0.342726	0.072244
O14	O	1.516301	0.842726	0.572244
Cu15	Cu	0.901570	0.342067	0.085403
Cu16	Cu	1.401570	0.842067	0.585403
Cu17	Cu	0.910636	0.326703	-0.085202
Cu18	Cu	1.410636	0.826703	0.414798
O19	O	0.882177	0.570917	0.072228
O20	O	1.382177	1.070917	0.572228
C21	C	0.763145	0.327794	0.000084
C22	C	1.263145	0.827794	0.500084
C23	C	0.676954	0.313635	0.000075
C24	C	1.176954	0.813635	0.500075
C25	C	0.618488	0.450242	0.000073
C26	C	1.118488	0.950242	0.500073
C27	C	0.537502	0.436931	0.000086
C28	C	1.037502	0.936931	0.500086
C29	C	0.514985	0.287010	0.000093
C30	C	1.014985	0.787010	0.500093
C31	C	0.573459	0.150392	0.000096
C32	C	1.073459	0.650392	0.500096
C33	C	0.654442	0.163706	0.000090
C34	C	1.154442	0.663706	0.500090
C35	C	0.274709	0.231831	0.000117
C36	C	0.774709	0.731831	0.500117
C37	C	0.193718	0.218527	0.000120
C38	C	0.693718	0.718527	0.500120
C39	C	0.157767	0.505067	0.000111
C40	C	0.657767	1.005067	0.500111
C41	C	0.238755	0.518367	0.000099
C42	C	0.738755	1.018367	0.500099
C43	C	0.297221	0.381750	0.000108
C44	C	0.797221	0.881750	0.500108
N45	N	0.432205	0.273400	0.000102
N46	N	0.932205	0.773400	0.500102
N47	N	0.379998	0.395362	0.000104
N48	N	0.879998	0.895362	0.500104
C49	C	0.929241	0.045208	0.000102
C50	C	1.429241	0.545208	0.500102
C51	C	0.938306	-0.131015	0.000099
C52	C	1.438306	0.368985	0.500099
C53	C	1.049061	0.340976	0.000115
C54	C	1.549061	0.840976	0.500115
C55	C	1.135252	0.355134	0.000119
C56	C	1.635252	0.855134	0.500119
C57	C	0.882965	0.623562	0.000097
C58	C	1.382965	1.123562	0.500097
C59	C	0.873900	0.799784	0.000095
C60	C	1.373900	1.299784	0.500095
N61	N	0.895199	0.352873	0.205398
N62	N	1.395199	0.852873	0.705398
N63	N	0.917014	0.315885	-0.205197
N64	N	1.417014	0.815885	0.294803
C65	C	0.952194	0.255970	0.250799
C66	C	1.452194	0.755970	0.750799
C67	C	0.947382	0.264158	0.341606
C68	C	1.447382	0.764158	0.841606
C69	C	0.885578	0.369258	0.387011
C70	C	1.385578	0.869258	0.887011
C71	C	0.828576	0.466164	0.341604
C72	C	1.328576	0.966164	0.841604
C73	C	0.833386	0.457968	0.250798
C74	C	1.333386	0.957968	0.750798
C75	C	0.864822	0.404595	0.658590
C76	C	1.364822	0.904595	1.158590
C77	C	0.860018	0.412788	0.749402
C78	C	1.360018	0.912788	1.249402
C79	C	0.978824	0.210778	0.749398
C80	C	1.478824	0.710778	1.249398
C81	C	0.983631	0.202598	0.658591
C82	C	1.483631	0.702598	1.158591
C83	C	0.926627	0.299499	0.613191
C84	C	1.426627	0.799499	1.113191
N85	N	0.880659	0.377633	0.479831
N86	N	1.380659	0.877633	0.979831
N87	N	0.931543	0.291114	0.520373
N88	N	1.431543	0.791114	1.020373
H89	H	0.702046	0.052465	0.000091
H90	H	1.202046	0.552465	0.500091
H91	H	0.786973	0.536874	0.213833
H92	H	1.286973	1.036874	0.713833
F93	F	1.019448	-0.229793	0.000118
F94	F	1.519448	0.270207	0.500118
F95	F	0.169757	0.058955	0.000143
F96	F	0.669757	0.558955	0.500143
F97	F	1.017980	0.144115	0.202484
F98	F	1.517980	0.644115	0.702484
F99	F	1.049410	0.090741	0.610269
F100	F	1.549410	0.590741	1.110269
F101	F	1.008043	0.161021	0.389926
F102	F	1.508043	0.661021	0.889926
F103	F	0.762795	0.578013	0.389928
F104	F	1.262795	1.078013	0.889928
F105	F	0.475280	0.582328	0.000080
F106	F	0.975280	1.082328	0.500080
H107	H	1.025233	0.131884	0.786371
H108	H	1.525233	0.631884	1.286371
F109	F	0.794234	0.524660	0.797719
F110	F	1.294234	1.024660	1.297719
H111	H	0.811825	-0.124646	0.000091
H112	H	1.311825	0.375354	0.500091
H113	H	0.636813	0.572324	0.000067
H114	H	1.136813	1.072324	0.500067
F115	F	0.262712	0.677933	0.000087
F116	F	0.762712	1.177933	0.500087
H117	H	0.818408	0.483499	0.621633
H118	H	1.318408	0.983499	1.121633
F119	F	0.095539	0.650454	0.000104
F120	F	0.595539	1.150454	0.500104
H121	H	0.322303	0.120586	0.000124
H122	H	0.822303	0.620586	0.500124
H123	H	0.555118	0.028324	0.000115
H124	H	1.055118	0.528324	0.500115
