data_functionalizedCrystal
_audit_creation_method	'MofGen! by Chris Wilmer'
_symmetry_space_group_name_H-M	'P1'
_symmetry_Int_Tables_number	1
_symmetry_cell_setting	triclinic
loop_
_symmetry_equiv_pos_as_xyz
  x,y,z
_cell_length_a	14.908558
_cell_length_b	16.625545
_cell_length_c	14.908854
_cell_angle_alpha	86.671394
_cell_angle_beta	89.796050
_cell_angle_gamma	86.720757
loop_
_atom_site_label
_atom_site_type_symbol
_atom_site_fract_x
_atom_site_fract_y
_atom_site_fract_z
Zn1	Zn	1.345282	-0.360186	-0.587578
Zn2	Zn	1.678616	-0.026853	-0.254244
Zn3	Zn	2.011949	0.306480	0.079089
Zn4	Zn	1.353843	-0.503231	-0.437212
Zn5	Zn	1.687177	-0.169898	-0.103878
Zn6	Zn	2.020510	0.163435	0.229455
Zn7	Zn	1.203592	-0.361099	-0.428573
Zn8	Zn	1.536925	-0.027766	-0.095240
Zn9	Zn	1.870258	0.305568	0.238094
Zn10	Zn	1.194877	-0.487659	-0.578868
Zn11	Zn	1.528210	-0.154325	-0.245535
Zn12	Zn	1.861544	0.179008	0.087798
O13	O	1.274399	-0.428044	-0.508058
O14	O	1.607732	-0.094711	-0.174724
O15	O	1.941065	0.238623	0.158609
O16	O	1.472244	-0.385297	-0.574892
O17	O	1.805577	-0.051963	-0.241558
O18	O	2.138910	0.281370	0.091775
O19	O	1.341142	-0.491276	-0.310238
O20	O	1.674475	-0.157943	0.023096
O21	O	2.007809	0.175390	0.356429
O22	O	1.222452	-0.248147	-0.449695
O23	O	1.555785	0.085186	-0.116361
O24	O	1.889118	0.418519	0.216972
O25	O	1.478534	-0.490391	-0.464418
O26	O	1.811867	-0.157058	-0.131085
O27	O	2.145200	0.176275	0.202248
O28	O	1.326551	-0.247477	-0.566515
O29	O	1.659884	0.085857	-0.233182
O30	O	1.993218	0.419190	0.100152
O31	O	1.230753	-0.386852	-0.303891
O32	O	1.564086	-0.053519	0.029442
O33	O	1.897420	0.279814	0.362776
O34	O	1.076610	-0.371752	-0.441250
O35	O	1.409943	-0.038419	-0.107916
O36	O	1.743277	0.294914	0.225417
O37	O	1.207599	-0.463850	-0.705852
O38	O	1.540932	-0.130517	-0.372518
O39	O	1.874265	0.202817	-0.039185
O40	O	1.070207	-0.464735	-0.551671
O41	O	1.403541	-0.131402	-0.218338
O42	O	1.736874	0.201931	0.114996
O43	O	1.318101	-0.370197	-0.712250
O44	O	1.651434	-0.036863	-0.378917
O45	O	1.984767	0.296470	-0.045584
O46	O	1.332692	-0.613996	-0.455973
O47	O	1.666025	-0.280663	-0.122640
O48	O	1.999359	0.052670	0.210694
O49	O	1.215900	-0.602555	-0.560048
O50	O	1.549233	-0.269222	-0.226714
O51	O	1.882567	0.064111	0.106619
C52	C	1.040783	-0.416654	-0.494578
C53	C	1.374117	-0.083320	-0.161245
C54	C	1.707450	0.250013	0.172088
C55	C	0.940840	-0.411799	-0.488833
C56	C	1.274174	-0.078466	-0.155500
C57	C	1.607507	0.254868	0.177833
C58	C	1.274303	-0.637532	-0.508024
C59	C	1.607636	-0.304198	-0.174690
C60	C	1.940969	0.029135	0.158643
C61	C	1.274342	-0.727154	-0.508044
C62	C	1.607675	-0.393820	-0.174711
C63	C	1.941009	-0.060487	0.158623
C64	C	0.803277	-0.356465	-0.423340
C65	C	1.136611	-0.023132	-0.090006
C66	C	1.469944	0.310202	0.243327
C67	C	0.897183	-0.361022	-0.428734
C68	C	1.230516	-0.027689	-0.095401
C69	C	1.563849	0.305644	0.237933
C70	C	0.890586	-0.458020	-0.543544
C71	C	1.223919	-0.124686	-0.210211
C72	C	1.557252	0.208647	0.123123
C73	C	0.796680	-0.453462	-0.538149
C74	C	1.130014	-0.120129	-0.204816
C75	C	1.463347	0.213204	0.128517
C76	C	0.753029	-0.402684	-0.478044
C77	C	1.086363	-0.069351	-0.144711
C78	C	1.419696	0.263983	0.188622
C79	C	0.659122	-0.398131	-0.472646
C80	C	0.992456	-0.064798	-0.139313
C81	C	1.325789	0.268535	0.194021
C82	C	0.652527	-0.495124	-0.587460
C83	C	0.985860	-0.161791	-0.254126
C84	C	1.319194	0.171543	0.079207
C85	C	0.746432	-0.499682	-0.592854
C86	C	1.079766	-0.166348	-0.259521
C87	C	1.413099	0.166985	0.073812
C88	C	1.274376	-0.799937	-0.508064
C89	C	1.607709	-0.466603	-0.174731
C90	C	1.941043	-0.133270	0.158603
C91	C	1.274427	-0.891247	-0.508087
C92	C	1.607760	-0.557913	-0.174753
C93	C	1.941094	-0.224580	0.158580
C94	C	1.274473	-0.964025	-0.508101
C95	C	1.607806	-0.630691	-0.174767
C96	C	1.941140	-0.297358	0.158566
C97	C	1.274523	-1.055340	-0.508122
C98	C	1.607857	-0.722007	-0.174789
C99	C	1.941190	-0.388674	0.158544
C100	C	1.508926	-0.439479	-0.521590
C101	C	1.842259	-0.106146	-0.188257
C102	C	2.175593	0.227187	0.145077
C103	C	1.608868	-0.444352	-0.527357
C104	C	1.942201	-0.111019	-0.194023
C105	C	2.275534	0.222314	0.139310
C106	C	1.260923	-0.415184	-0.742589
C107	C	1.594256	-0.081851	-0.409256
C108	C	1.927589	0.251482	-0.075922
C109	C	1.255180	-0.409704	-0.842532
C110	C	1.588513	-0.076371	-0.509199
C111	C	1.921847	0.256962	-0.175866
C112	C	1.274518	-0.217738	-0.508113
C113	C	1.607852	0.115595	-0.174779
C114	C	1.941185	0.448928	0.158554
C115	C	1.274569	-0.128119	-0.508136
C116	C	1.607903	0.205215	-0.174803
C117	C	1.941236	0.538548	0.158530
C118	C	1.359358	-0.508142	-1.036948
C119	C	1.692691	-0.174809	-0.703615
C120	C	2.026025	0.158524	-0.370282
C121	C	1.353965	-0.502996	-1.130854
C122	C	1.687298	-0.169663	-0.797521
C123	C	2.020632	0.163670	-0.464187
C124	C	1.239007	-0.394262	-1.124252
C125	C	1.572340	-0.060929	-0.790918
C126	C	1.905674	0.272404	-0.457585
C127	C	1.244400	-0.399409	-1.030346
C128	C	1.577733	-0.066075	-0.697012
C129	C	1.911066	0.267258	-0.363679
C130	C	1.304576	-0.456351	-0.986697
C131	C	1.637910	-0.123018	-0.653364
C132	C	1.971243	0.210315	-0.320031
C133	C	1.309964	-0.461501	-0.892790
C134	C	1.643297	-0.128168	-0.559456
C135	C	1.976631	0.205166	-0.226123
C136	C	1.195011	-0.352764	-0.886189
C137	C	1.528344	-0.019431	-0.552856
C138	C	1.861677	0.313903	-0.219523
C139	C	1.189618	-0.347618	-0.980095
C140	C	1.522951	-0.014284	-0.646762
C141	C	1.856285	0.319049	-0.313428
C142	C	1.287874	-0.440798	-0.274442
C143	C	1.621207	-0.107464	0.058892
C144	C	1.954541	0.225869	0.392225
C145	C	1.293791	-0.446059	-0.174509
C146	C	1.627124	-0.112726	0.158824
C147	C	1.960457	0.220608	0.492158
H148	H	0.623584	-0.356785	-0.423706
H149	H	0.956917	-0.023451	-0.090373
H150	H	1.290250	0.309882	0.242961
N151	N	0.937677	-0.512785	-0.608363
N152	N	1.271011	-0.179451	-0.275030
N153	N	1.604344	0.153882	0.058304
H154	H	0.917666	-0.496038	-0.671697
H155	H	1.250999	-0.162705	-0.338364
H156	H	1.584332	0.170629	-0.005031
H157	H	1.004777	-0.508629	-0.603397
H158	H	1.338111	-0.175296	-0.270064
H159	H	1.671444	0.158038	0.063270
N160	N	0.756190	-0.301711	-0.358507
N161	N	1.089523	0.031623	-0.025174
N162	N	1.422856	0.364956	0.308159
H163	H	0.802272	-0.273125	-0.324666
H164	H	1.135605	0.060209	0.008668
H165	H	1.468939	0.393542	0.342001
H166	H	0.715139	-0.260544	-0.392940
H167	H	1.048473	0.072789	-0.059606
H168	H	1.381806	0.406123	0.273727
H169	H	0.611605	-0.532760	-0.632004
H170	H	0.944938	-0.199426	-0.298671
H171	H	1.278272	0.133907	0.034663
H172	H	0.781986	-0.541022	-0.641792
H173	H	1.115319	-0.207688	-0.308459
H174	H	1.448652	0.125645	0.024875
H175	H	0.938091	-0.323383	-0.384191
H176	H	1.271424	0.009950	-0.050858
H177	H	1.604758	0.343284	0.282476
N178	N	1.374862	-0.522918	-0.845710
N179	N	1.708195	-0.189585	-0.512377
N180	N	2.041529	0.143749	-0.179043
H181	H	1.408747	-0.554943	-0.891799
H182	H	1.742081	-0.221610	-0.558466
H183	H	2.075414	0.111724	-0.225132
H184	H	1.418727	-0.494260	-0.809156
H185	H	1.752060	-0.160927	-0.475823
H186	H	2.085394	0.172407	-0.142489
N187	N	1.424249	-0.569564	-0.989866
N188	N	1.757582	-0.236231	-0.656532
N189	N	2.090916	0.097103	-0.323199
H190	H	1.458130	-0.601595	-1.035953
H191	H	1.791464	-0.268261	-0.702619
H192	H	2.124797	0.065072	-0.369286
H193	H	1.468119	-0.540911	-0.953312
H194	H	1.801452	-0.207577	-0.619979
H195	H	2.134785	0.125756	-0.286645
H196	H	1.398575	-0.545169	-1.171765
H197	H	1.731909	-0.211835	-0.838432
H198	H	2.065242	0.121498	-0.505098
H199	H	1.190019	-0.347898	-1.159807
H200	H	1.523353	-0.014565	-0.826473
H201	H	1.856686	0.318768	-0.493140
H202	H	1.140626	-0.301255	-1.015647
H203	H	1.473960	0.032079	-0.682313
H204	H	1.807293	0.365412	-0.348980
H205	H	1.150402	-0.310592	-0.845265
H206	H	1.483736	0.022741	-0.511931
H207	H	1.817069	0.356074	-0.178598
