data_functionalizedCrystal
_audit_creation_method	'MofGen! by Chris Wilmer'
_symmetry_space_group_name_H-M	'P1'
_symmetry_Int_Tables_number	1
_symmetry_cell_setting	triclinic
loop_
_symmetry_equiv_pos_as_xyz
  x,y,z
_cell_length_a	18.101398
_cell_length_b	21.295417
_cell_length_c	18.101389
_cell_angle_alpha	89.977434
_cell_angle_beta	89.975673
_cell_angle_gamma	90.025773
loop_
_atom_site_label
_atom_site_type_symbol
_atom_site_fract_x
_atom_site_fract_y
_atom_site_fract_z
Zn1	Zn	1.132124	-0.250755	-0.418817
Zn2	Zn	1.632124	0.249245	0.081183
Zn3	Zn	1.132021	-0.356008	-0.294967
Zn4	Zn	1.632021	0.143992	0.205033
Zn5	Zn	1.008283	-0.250748	-0.294979
Zn6	Zn	1.508283	0.249252	0.205021
Zn7	Zn	1.008235	-0.355981	-0.418755
Zn8	Zn	1.508235	0.144019	0.081245
O9	O	1.070166	-0.303373	-0.356880
O10	O	1.570166	0.196627	0.143120
O11	O	1.235743	-0.264731	-0.402409
O12	O	1.735743	0.235269	0.097591
O13	O	1.115584	-0.342054	-0.191335
O14	O	1.615584	0.157946	0.308665
O15	O	1.024774	-0.162660	-0.311437
O16	O	1.524774	0.337340	0.188563
O17	O	1.235668	-0.342060	-0.311417
O18	O	1.735668	0.157940	0.188583
O19	O	1.115759	-0.162664	-0.402421
O20	O	1.615759	0.337336	0.097579
O21	O	1.024674	-0.264720	-0.191344
O22	O	1.524674	0.235280	0.308656
O23	O	0.904644	-0.264694	-0.311377
O24	O	1.404644	0.235306	0.188623
O25	O	1.024692	-0.342014	-0.522397
O26	O	1.524692	0.157986	-0.022397
O27	O	0.904609	-0.342008	-0.402315
O28	O	1.404609	0.157992	0.097685
O29	O	1.115713	-0.264705	-0.522442
O30	O	1.615713	0.235295	-0.022442
O31	O	1.115538	-0.444094	-0.311357
O32	O	1.615538	0.055906	0.188643
O33	O	1.024592	-0.444074	-0.402304
O34	O	1.524592	0.055926	0.097696
C35	C	0.877755	-0.303348	-0.356841
C36	C	1.377755	0.196652	0.143159
C37	C	0.795441	-0.303352	-0.356842
C38	C	1.295441	0.196648	0.143158
C39	C	0.496350	-0.303391	-0.356904
C40	C	0.996350	0.196609	0.143096
C41	C	0.527673	-0.254504	-0.299967
C42	C	1.027673	0.245496	0.200033
C43	C	0.613291	-0.254635	-0.299724
C44	C	1.113291	0.245365	0.200276
C45	C	0.644733	-0.303371	-0.356873
C46	C	1.144733	0.196629	0.143127
C47	C	0.613615	-0.369679	-0.335543
C48	C	1.113615	0.130321	0.164457
C49	C	0.527970	-0.369407	-0.335147
C50	C	1.027970	0.130593	0.164853
C51	C	0.527965	-0.286547	-0.435305
C52	C	1.027965	0.213453	0.064695
C53	C	0.613615	-0.285070	-0.434877
C54	C	1.113615	0.214930	0.065123
C55	C	0.728592	-0.303364	-0.356857
C56	C	1.228592	0.196636	0.143143
C57	C	0.412491	-0.303403	-0.356919
C58	C	0.912491	0.196597	0.143081
C59	C	1.070069	-0.466925	-0.356839
C60	C	1.570069	0.033075	0.143161
C61	C	1.070095	-0.536893	-0.356846
C62	C	1.570095	-0.036893	0.143154
C63	C	1.117492	-0.569749	-0.309538
C64	C	1.617492	-0.069749	0.190462
C65	C	1.117527	-0.635491	-0.309555
C66	C	1.617527	-0.135491	0.190445
C67	C	1.070151	-0.668375	-0.356871
C68	C	1.570151	-0.168375	0.143129
C69	C	1.022751	-0.635511	-0.404188
C70	C	1.522751	-0.135511	0.095812
C71	C	1.022722	-0.569770	-0.404175
C72	C	1.522722	-0.069770	0.095825
N73	N	1.005367	-0.771637	-0.362504
N74	N	1.505367	-0.271637	0.137496
N75	N	1.005396	-0.834089	-0.362512
N76	N	1.505396	-0.334089	0.137488
C77	C	1.070234	-0.866450	-0.356914
C78	C	1.570234	-0.366450	0.143086
N79	N	1.135044	-0.834001	-0.351293
N80	N	1.635044	-0.334001	0.148707
N81	N	1.135014	-0.771543	-0.351282
N82	N	1.635014	-0.271543	0.148718
C83	C	1.070177	-0.739661	-0.356891
C84	C	1.570177	-0.239661	0.143109
C85	C	1.117673	-0.970592	-0.309622
C86	C	1.617673	-0.470592	0.190378
C87	C	1.117709	-1.036335	-0.309644
C88	C	1.617709	-0.536335	0.190356
C89	C	1.022926	-1.036354	-0.404273
C90	C	1.522926	-0.536354	0.095727
C91	C	1.022897	-0.970612	-0.404255
C92	C	1.522897	-0.470612	0.095745
C93	C	1.070269	-0.937734	-0.356925
C94	C	1.570269	-0.437734	0.143075
C95	C	1.263328	-0.303399	-0.356919
C96	C	1.763328	0.196601	0.143081
C97	C	1.345642	-0.303410	-0.356935
C98	C	1.845642	0.196590	0.143065
C99	C	1.070209	-0.303357	-0.550042
C100	C	1.570209	0.196643	-0.050042
C101	C	1.070227	-0.303350	-0.632356
C102	C	1.570227	0.196650	-0.132356
C103	C	1.070283	-0.139183	-0.356937
C104	C	1.570283	0.360817	0.143063
C105	C	1.070334	-0.069215	-0.356961
C106	C	1.570334	0.430785	0.143039
C107	C	1.070270	-0.303232	-0.931447
C108	C	1.570270	0.196768	-0.431447
C109	C	1.012805	-0.351719	-0.900093
C110	C	1.512805	0.148281	-0.400093
C111	C	1.012960	-0.351944	-0.814475
C112	C	1.512960	0.148056	-0.314475
C113	C	1.070248	-0.303291	-0.783064
C114	C	1.570248	0.196709	-0.283064
C115	C	1.148274	-0.321303	-0.814168
C116	C	1.648274	0.178697	-0.314168
C117	C	1.147953	-0.321621	-0.899813
C118	C	1.647953	0.178379	-0.399813
C119	C	1.050388	-0.236626	-0.899877
C120	C	1.550388	0.263374	-0.399877
C121	C	1.048652	-0.237011	-0.814226
C122	C	1.548652	0.262989	-0.314226
C123	C	1.070240	-0.303323	-0.699205
C124	C	1.570240	0.196677	-0.199205
C125	C	1.070283	-0.303202	-1.015306
C126	C	1.570283	0.196798	-0.515306
C127	C	1.070166	-0.303344	-0.164469
C128	C	1.570166	0.196656	0.335531
C129	C	1.070291	-0.303173	-0.082155
C130	C	1.570291	0.196827	0.417845
H131	H	0.507249	-0.407065	-0.374809
H132	H	1.007249	0.092935	0.125191
H133	H	1.156249	-0.943822	-0.271085
H134	H	1.656249	-0.443822	0.228915
C135	C	0.970750	-0.934468	-0.456284
C136	C	1.470750	-0.434468	0.043716
H137	H	0.942534	-0.963466	-0.484463
H138	H	1.442534	-0.463466	0.015537
H139	H	0.999045	-0.908785	-0.488576
H140	H	1.499045	-0.408785	0.011424
H141	H	0.938486	-0.908861	-0.427910
H142	H	1.438486	-0.408861	0.072090
C143	C	1.169848	-1.072477	-0.257602
C144	C	1.669848	-0.572477	0.242398
H145	H	1.198050	-1.043479	-0.229410
H146	H	1.698050	-0.543479	0.270590
H147	H	1.202114	-1.098086	-0.285965
H148	H	1.702114	-0.598086	0.214035
H149	H	1.141541	-1.098158	-0.225312
H150	H	1.641541	-0.598158	0.274688
C151	C	0.641119	-0.219165	-0.456626
C152	C	1.141119	0.280835	0.043374
H153	H	0.622114	-0.208364	-0.503865
H154	H	1.122114	0.291636	-0.003865
H155	H	0.693571	-0.219039	-0.458279
H156	H	1.193571	0.280961	0.041721
H157	H	0.624634	-0.189430	-0.421158
H158	H	1.124634	0.310570	0.078842
C159	C	0.500599	-0.334645	-0.492617
C160	C	1.000599	0.165355	0.007383
H161	H	0.470054	-0.364846	-0.468922
H162	H	0.970054	0.135154	0.031078
H163	H	0.541783	-0.355123	-0.514455
H164	H	1.041783	0.144877	-0.014455
H165	H	0.473059	-0.313636	-0.529824
H166	H	0.973059	0.186364	-0.029824
H167	H	0.633745	-0.265769	-0.241630
H168	H	1.133745	0.234231	0.258370
C169	C	1.170720	-0.387395	-0.926812
C170	C	1.670720	0.112605	-0.426812
H171	H	1.170730	-0.388168	-0.979287
H172	H	1.670730	0.111832	-0.479287
H173	H	1.136656	-0.417648	-0.908674
H174	H	1.636656	0.082352	-0.408674
H175	H	1.218832	-0.396941	-0.909135
H176	H	1.718832	0.103059	-0.409135
C177	C	0.970817	-1.072518	-0.456324
C178	C	1.470817	-0.572518	0.043676
H179	H	0.977620	-1.116378	-0.449555
H180	H	1.477620	-0.616378	0.050445
H181	H	0.981622	-1.061711	-0.506089
H182	H	1.481622	-0.561711	-0.006089
H183	H	0.921057	-1.061786	-0.445430
H184	H	1.421057	-0.561786	0.054570
C185	C	0.934802	-0.336708	-0.786059
C186	C	1.434802	0.163292	-0.286059
H187	H	0.902668	-0.330329	-0.826858
H188	H	1.402668	0.169671	-0.326858
H189	H	0.936390	-0.299708	-0.756806
H190	H	1.436390	0.200292	-0.256806
H191	H	0.917122	-0.370698	-0.756992
H192	H	1.417122	0.129302	-0.256992
C193	C	0.934404	-0.336647	-0.927895
C194	C	1.434404	0.163353	-0.427895
H195	H	0.936012	-0.300652	-0.958878
H196	H	1.436012	0.199348	-0.458878
H197	H	0.903018	-0.328608	-0.886908
H198	H	1.403018	0.171392	-0.386908
H199	H	0.915818	-0.371382	-0.955069
H200	H	1.415818	0.128618	-0.455069
H201	H	1.087452	-0.198968	-0.792845
H202	H	1.587452	0.301032	-0.292845
C203	C	0.642516	-0.329674	-0.495258
C204	C	1.142516	0.170326	0.004742
H205	H	0.674076	-0.360180	-0.473588
H206	H	1.174076	0.139820	0.026412
H207	H	0.669293	-0.306266	-0.531048
H208	H	1.169293	0.193734	-0.031048
H209	H	0.602002	-0.350109	-0.518380
H210	H	1.102002	0.149891	-0.018380
C211	C	0.500928	-0.388708	-0.257724
C212	C	1.000928	0.111292	0.242276
H213	H	0.448452	-0.388717	-0.256802
H214	H	0.948452	0.111283	0.243198
H215	H	0.519045	-0.359729	-0.222192
H216	H	1.019045	0.140271	0.277808
H217	H	0.518599	-0.429596	-0.246420
H218	H	1.018599	0.070404	0.253580
C219	C	1.030350	-0.418006	-0.929172
C220	C	1.530350	0.081994	-0.429172
H221	H	1.072547	-0.416262	-0.960334
H222	H	1.572547	0.083738	-0.460334
H223	H	0.989341	-0.433438	-0.956410
H224	H	1.489341	0.066562	-0.456410
H225	H	1.040001	-0.445212	-0.888709
H226	H	1.540001	0.054788	-0.388709
H227	H	1.026087	-0.401314	-0.793988
H228	H	1.526087	0.098686	-0.293988
C229	C	1.207763	-0.275998	-0.927840
C230	C	1.707763	0.224002	-0.427840
H231	H	1.232152	-0.257355	-0.886881
H232	H	1.732152	0.242645	-0.386881
H233	H	1.185407	-0.244152	-0.956996
H234	H	1.685407	0.255848	-0.456996
H235	H	1.242641	-0.298351	-0.956923
H236	H	1.742641	0.201649	-0.456923
H237	H	0.635030	-0.384213	-0.278847
H238	H	1.135030	0.115787	0.221153
C239	C	1.169660	-0.671641	-0.257509
C240	C	1.669660	-0.171641	0.242491
H241	H	1.197865	-0.642644	-0.229316
H242	H	1.697865	-0.142644	0.270684
H243	H	1.201923	-0.697254	-0.285869
H244	H	1.701923	-0.197254	0.214131
H245	H	1.141347	-0.697318	-0.225220
H246	H	1.641347	-0.197318	0.274780
C247	C	1.207672	-0.275102	-0.786684
C248	C	1.707672	0.224898	-0.286684
H249	H	1.185360	-0.244345	-0.755919
H250	H	1.685360	0.255655	-0.255919
H251	H	1.230280	-0.255106	-0.827811
H252	H	1.730280	0.244894	-0.327811
H253	H	1.244015	-0.297354	-0.759350
H254	H	1.744015	0.202646	-0.259350
H255	H	0.984178	-0.662290	-0.442715
H256	H	1.484178	-0.162290	0.057285
C257	C	1.171437	-0.386382	-0.785207
C258	C	1.671437	0.113618	-0.285207
H259	H	1.133669	-0.402663	-0.754168
H260	H	1.633669	0.097337	-0.254168
H261	H	1.216002	-0.382642	-0.757863
H262	H	1.716002	0.117358	-0.257863
H263	H	1.178916	-0.413997	-0.825728
H264	H	1.678916	0.086003	-0.325728
H265	H	0.994480	-0.220216	-0.921464
H266	H	1.494480	0.279784	-0.421464
C267	C	0.971088	-0.218653	-0.786755
C268	C	1.471088	0.281347	-0.286755
H269	H	0.951942	-0.251240	-0.756417
H270	H	1.451942	0.248760	-0.256417
H271	H	0.939352	-0.212496	-0.827903
H272	H	1.439352	0.287504	-0.327903
H273	H	0.974125	-0.180901	-0.758976
H274	H	1.474125	0.319099	-0.258976
H275	H	0.633980	-0.407079	-0.375715
H276	H	1.133980	0.092921	0.124285
H277	H	0.506392	-0.239037	-0.454697
H278	H	1.006392	0.260963	0.045303
C279	C	1.106919	-0.187821	-0.927281
C280	C	1.606919	0.312179	-0.427281
H281	H	1.142467	-0.207904	-0.957814
H282	H	1.642467	0.292096	-0.457814
H283	H	1.130996	-0.169229	-0.886114
H284	H	1.630996	0.330771	-0.386114
H285	H	1.082165	-0.156228	-0.954842
H286	H	1.582165	0.343772	-0.454842
C287	C	1.169608	-0.533587	-0.257486
C288	C	1.669608	-0.033587	0.242514
H289	H	1.197846	-0.562575	-0.229319
H290	H	1.697846	-0.062575	0.270681
H291	H	1.141291	-0.507974	-0.225185
H292	H	1.641291	-0.007974	0.274815
H293	H	1.201852	-0.507909	-0.285850
H294	H	1.701852	-0.007909	0.214150
H295	H	0.984125	-0.543018	-0.442700
H296	H	1.484125	-0.043018	0.057300
H297	H	0.507102	-0.205183	-0.313191
H298	H	1.007102	0.294817	0.186809
C299	C	0.641718	-0.188209	-0.317770
C300	C	1.141718	0.311791	0.182230
H301	H	0.600924	-0.160899	-0.325313
H302	H	1.100924	0.339101	0.174687
H303	H	0.671000	-0.189578	-0.361301
H304	H	1.171000	0.310422	0.138699
H305	H	0.670758	-0.173161	-0.277813
H306	H	1.170758	0.326839	0.222187
H307	H	0.506124	-0.265512	-0.242211
H308	H	1.006124	0.234488	0.257789
