data_functionalizedCrystal
_audit_creation_method	'MofGen! by Chris Wilmer'
_symmetry_space_group_name_H-M	'P1'
_symmetry_Int_Tables_number	1
_symmetry_cell_setting	triclinic
loop_
_symmetry_equiv_pos_as_xyz
  x,y,z
_cell_length_a	8.597366
_cell_length_b	8.559649
_cell_length_c	9.730223
_cell_angle_alpha	90.000781
_cell_angle_beta	97.701725
_cell_angle_gamma	77.624636
loop_
_atom_site_label
_atom_site_type_symbol
_atom_site_fract_x
_atom_site_fract_y
_atom_site_fract_z
O1	O	2.053716	0.238029	0.128910
O2	O	1.594586	0.256292	0.074540
O3	O	1.864600	0.015190	0.106517
O4	O	1.783701	0.479131	0.096934
O5	O	1.864597	0.015196	0.335096
O6	O	1.594582	0.256298	0.303119
O7	O	2.053712	0.238035	0.357490
Zn8	Zn	1.824147	0.247168	0.366597
Zn9	Zn	1.824151	0.247159	0.065433
O10	O	1.783697	0.479137	0.325513
C11	C	1.536349	0.254334	0.181933
C12	C	1.362831	0.248471	0.161385
C13	C	1.870729	-0.044241	0.221530
C14	C	1.888978	-0.221336	0.223683
C15	C	2.111948	0.239993	0.250093
C16	C	2.285467	0.245856	0.270633
C17	C	1.777568	0.538568	0.210497
C18	C	1.759319	0.715663	0.208335
N19	N	1.824155	0.247172	0.572134
N20	N	1.824157	0.247142	-0.140102
C21	C	1.943740	0.140449	0.658222
C22	C	1.943738	0.140430	0.802105
C23	C	1.704560	0.353870	0.773798
C24	C	1.704556	0.353881	0.629917
C25	C	2.081832	0.017226	0.674566
C26	C	2.081831	0.017207	0.818449
H27	H	1.296323	0.246213	0.052125
C28	C	1.373884	0.248769	0.416446
C29	C	1.267751	0.245139	0.513108
C30	C	1.349148	0.247798	0.647441
H31	H	1.414353	0.343652	0.426549
H32	H	1.460616	0.158123	0.431906
H33	H	1.181048	0.335776	0.497654
H34	H	1.227276	0.150263	0.503050
H35	H	1.435880	0.157153	0.662901
H36	H	1.389614	0.342683	0.657529
H37	H	1.277154	0.245321	0.713043
H38	H	1.634351	-0.202792	0.193540
C39	C	2.055587	-0.330141	0.243134
C40	C	2.073800	-0.426632	0.127681
C41	C	2.227261	-0.526866	0.145540
H42	H	2.068394	-0.395888	0.324273
H43	H	2.134532	-0.266925	0.252402
H44	H	1.994877	-0.489843	0.118429
H45	H	2.061024	-0.360928	0.046527
H46	H	2.306206	-0.463650	0.154808
H47	H	2.240054	-0.592602	0.226682
H48	H	2.239644	-0.592336	0.067204
C49	C	2.237990	0.054489	0.888840
C50	C	2.367910	-0.061884	0.856041
C51	C	2.511782	-0.027584	0.920846
H52	H	2.238220	0.054435	0.986490
H53	H	2.247237	0.156751	0.857376
H54	H	2.358666	-0.164120	0.887512
H55	H	2.367732	-0.061848	0.758403
H56	H	2.521029	0.074678	0.889382
H57	H	2.511995	-0.027638	1.018493
H58	H	2.599950	-0.106529	0.898591
C59	C	1.574617	0.469917	0.536685
C60	C	1.469910	0.563388	0.618093
C61	C	1.350197	0.670315	0.532256
H62	H	1.516172	0.411665	0.473629
H63	H	1.622891	0.537323	0.486306
H64	H	1.421640	0.495991	0.668448
H65	H	1.528307	0.621675	0.681146
H66	H	1.398470	0.737721	0.481877
H67	H	1.291765	0.612049	0.469205
H68	H	1.279148	0.733758	0.587479
H69	H	1.607185	0.440748	0.820861
H70	H	2.070881	-0.105531	0.634216
H71	H	2.190679	0.056835	0.642830
H72	H	2.058683	-0.098884	0.860324
