data_functionalizedCrystal
_audit_creation_method	'MofGen! by Chris Wilmer'
_symmetry_space_group_name_H-M	'P1'
_symmetry_Int_Tables_number	1
_symmetry_cell_setting	triclinic
loop_
_symmetry_equiv_pos_as_xyz
  x,y,z
_cell_length_a	12.759401
_cell_length_b	18.050589
_cell_length_c	12.759393
_cell_angle_alpha	89.969379
_cell_angle_beta	89.981504
_cell_angle_gamma	90.028382
loop_
_atom_site_label
_atom_site_type_symbol
_atom_site_fract_x
_atom_site_fract_y
_atom_site_fract_z
Zn1	Zn	1.606157	-0.295612	-0.593988
Zn2	Zn	1.606010	-0.419823	-0.418311
Zn3	Zn	1.430459	-0.295651	-0.418328
Zn4	Zn	1.430406	-0.419766	-0.593953
O5	O	1.518258	-0.357713	-0.506145
O6	O	1.753158	-0.312097	-0.570692
O7	O	1.582683	-0.403391	-0.271292
O8	O	1.453849	-0.191722	-0.441651
O9	O	1.753050	-0.403354	-0.441623
O10	O	1.582934	-0.191693	-0.570708
O11	O	1.453706	-0.312163	-0.271304
O12	O	1.283431	-0.312108	-0.441617
O13	O	1.453759	-0.403256	-0.740979
O14	O	1.283392	-0.403294	-0.570648
O15	O	1.582882	-0.312041	-0.741005
O16	O	1.582632	-0.523740	-0.441589
O17	O	1.453616	-0.523698	-0.570632
C18	C	1.245290	-0.357699	-0.506131
C19	C	1.128514	-0.357711	-0.506149
C20	C	1.518131	-0.550665	-0.506127
C21	C	1.518173	-0.633211	-0.506155
C22	C	1.073659	-0.405268	-0.573225
C23	C	0.963935	-0.405277	-0.573236
C24	C	0.963930	-0.310171	-0.439088
C25	C	1.073652	-0.310159	-0.439083
C26	C	1.073661	-0.460179	-0.650671
C27	C	0.963937	-0.460188	-0.650683
C28	C	1.448083	-0.832666	-0.576304
C29	C	1.422469	-0.882114	-0.480436
C30	C	1.518276	-0.784341	-0.506169
C31	C	1.543942	-0.881974	-0.602048
C32	C	1.518374	-0.930326	-0.506191
C33	C	1.492611	-0.832703	-0.410250
C34	C	1.614129	-0.832558	-0.531927
C35	C	1.588551	-0.881985	-0.435992
C36	C	1.518217	-0.700243	-0.506158
C37	C	1.518433	-1.014423	-0.506191
C38	C	1.792291	-0.357727	-0.506160
C39	C	1.909068	-0.357733	-0.506166
C40	C	1.518331	-0.357638	-0.780178
C41	C	1.518363	-0.357606	-0.896955
C42	C	1.518414	-0.164007	-0.506185
C43	C	1.518480	-0.081462	-0.506203
C44	C	1.585606	-0.310106	-0.951832
C45	C	1.585631	-0.310079	-1.061557
C46	C	1.451166	-0.405059	-1.061516
C47	C	1.451136	-0.405081	-0.951794
C48	C	1.663242	-0.255273	-0.951857
C49	C	1.663267	-0.255246	-1.061581
C50	C	1.518245	-0.357734	-0.233178
C51	C	1.518417	-0.357557	-0.116401
H52	H	1.118311	-0.271429	-0.384470
H53	H	1.744633	-0.270650	-1.091359
C54	C	0.795731	-0.267967	-0.379523
C55	C	0.903622	-0.257913	-0.365358
H56	H	0.758503	-0.235708	-0.333996
H57	H	0.777785	-0.257152	-0.450131
H58	H	0.777731	-0.317858	-0.364031
H59	H	0.921623	-0.208023	-0.380857
H60	H	0.921574	-0.268722	-0.294734
C61	C	1.028590	-0.426913	-0.827215
C62	C	1.113919	-0.439467	-0.760560
H63	H	1.053446	-0.414121	-0.895050
H64	H	0.987219	-0.470563	-0.831536
H65	H	0.987245	-0.387529	-0.800268
H66	H	1.155259	-0.478855	-0.787502
H67	H	1.155307	-0.395811	-0.756242
H68	H	1.341455	-0.903898	-0.458669
C69	C	0.960270	-0.589578	-0.694104
C70	C	0.923676	-0.537810	-0.621070
H71	H	0.935418	-0.637496	-0.675817
H72	H	0.935492	-0.576790	-0.761928
H73	H	1.034721	-0.589564	-0.694085
H74	H	0.849225	-0.537821	-0.621095
H75	H	0.948449	-0.550602	-0.553229
C76	C	1.309772	-0.415394	-0.828396
C77	C	1.377211	-0.457285	-0.891467
H78	H	1.264127	-0.447624	-0.791157
H79	H	1.349805	-0.387131	-0.780040
H80	H	1.269633	-0.383026	-0.871223
H81	H	1.417355	-0.489650	-0.848639
H82	H	1.337172	-0.485561	-0.939829
H83	H	1.107657	-0.514786	-0.621388
H84	H	0.929946	-0.439658	-0.728034
C85	C	1.391507	-0.447199	-1.229696
C86	C	1.377282	-0.457248	-1.121800
H87	H	1.345898	-0.479424	-1.266908
H88	H	1.376172	-0.397302	-1.247687
H89	H	1.462097	-0.458068	-1.247668
H90	H	1.306694	-0.446374	-1.103826
H91	H	1.392610	-0.507156	-1.103802
H92	H	1.388636	-0.811010	-0.635531
C93	C	1.463390	-0.726043	-0.301765
C94	C	1.463222	-0.803613	-0.300771
H95	H	1.445238	-0.708085	-0.234180
H96	H	1.531227	-0.708667	-0.320157
H97	H	1.413805	-0.708770	-0.351621
H98	H	1.512813	-0.820885	-0.250920
H99	H	1.395375	-0.820995	-0.282365
C100	C	1.590283	-0.851343	-0.779251
C101	C	1.573206	-0.911192	-0.711493
H102	H	1.608350	-0.869381	-0.846816
H103	H	1.528275	-0.822440	-0.783936
H104	H	1.645821	-0.821626	-0.752960
H105	H	1.517663	-0.940907	-0.737780
H106	H	1.635223	-0.940108	-0.706812
H107	H	1.647952	-0.903503	-0.376622
C108	C	1.616078	-0.130526	-0.997049
C109	C	1.633870	-0.177637	-0.911675
H110	H	1.597938	-0.082601	-0.972240
H111	H	1.677832	-0.127393	-1.038405
H112	H	1.560384	-0.149632	-1.038393
H113	H	1.689570	-0.158534	-0.870335
H114	H	1.572109	-0.180768	-0.870301
H115	H	1.740507	-0.275891	-0.917821
C116	C	1.790779	-0.862875	-0.580508
C117	C	1.723468	-0.803147	-0.561374
H118	H	1.858278	-0.844716	-0.598703
H119	H	1.795847	-0.892594	-0.519267
H120	H	1.763869	-0.891816	-0.636546
H121	H	1.750374	-0.774210	-0.505331
H122	H	1.718404	-0.773416	-0.622622
H123	H	1.634172	-0.200598	-1.095627
