data_functionalizedCrystal
_audit_creation_method	'MofGen! by Chris Wilmer'
_symmetry_space_group_name_H-M	'P1'
_symmetry_Int_Tables_number	1
_symmetry_cell_setting	triclinic
loop_
_symmetry_equiv_pos_as_xyz
  x,y,z
_cell_length_a	16.959455
_cell_length_b	12.594516
_cell_length_c	16.959447
_cell_angle_alpha	89.974854
_cell_angle_beta	89.985678
_cell_angle_gamma	90.013000
loop_
_atom_site_label
_atom_site_type_symbol
_atom_site_fract_x
_atom_site_fract_y
_atom_site_fract_z
Zn1	Zn	1.208406	-0.423808	-0.446937
Zn2	Zn	1.208338	-0.601815	-0.314770
Zn3	Zn	1.076234	-0.423841	-0.314775
Zn4	Zn	1.076208	-0.601735	-0.446909
O5	O	1.142297	-0.512800	-0.380848
O6	O	1.319008	-0.447440	-0.429415
O7	O	1.190796	-0.578253	-0.204160
O8	O	1.093807	-0.274891	-0.332320
O9	O	1.318958	-0.578221	-0.332313
O10	O	1.190912	-0.274866	-0.429419
O11	O	1.093740	-0.447497	-0.204163
O12	O	0.965620	-0.447420	-0.332293
O13	O	1.093762	-0.578085	-0.557524
O14	O	0.965601	-0.578118	-0.429371
O15	O	1.190887	-0.447363	-0.557544
O16	O	1.190771	-0.750750	-0.332286
O17	O	1.093696	-0.750692	-0.429367
C18	C	0.936930	-0.512765	-0.380830
C19	C	0.849074	-0.512775	-0.380841
C20	C	0.477584	-0.444690	-0.330405
C21	C	0.477613	-0.580998	-0.431336
C22	C	0.560158	-0.580982	-0.431332
C23	C	0.601421	-0.512821	-0.380862
C24	C	0.560137	-0.444674	-0.330396
C25	C	0.601448	-0.649135	-0.481790
C26	C	0.683999	-0.649123	-0.481787
C27	C	0.725263	-0.580955	-0.431320
C28	C	0.683974	-0.512806	-0.380854
C29	C	0.725237	-0.444644	-0.330384
C30	C	0.683949	-0.376488	-0.279920
C31	C	0.601401	-0.376507	-0.279930
C32	C	0.807811	-0.580937	-0.431311
C33	C	0.807790	-0.444629	-0.330376
C34	C	1.142245	-0.789341	-0.380840
C35	C	1.142295	-0.907646	-0.380863
C36	C	1.089491	-0.976906	-0.433629
C37	C	1.070239	-1.047768	-0.361503
C38	C	1.161619	-1.047583	-0.453001
C39	C	1.123005	-0.976950	-0.308699
C40	C	1.214418	-0.976758	-0.400246
C41	C	1.195194	-1.047589	-0.328071
C42	C	1.348465	-0.512836	-0.380866
C43	C	1.436321	-0.512851	-0.380874
C44	C	1.142329	-0.512712	-0.587016
C45	C	1.142343	-0.512674	-0.674873
C46	C	1.142370	-0.235179	-0.380873
C47	C	1.142401	-0.116873	-0.380884
C48	C	1.091869	-0.580623	-1.046340
C49	C	1.193006	-0.444501	-1.046357
C50	C	1.192985	-0.444523	-0.963811
C51	C	1.142406	-0.512598	-0.922526
C52	C	1.091848	-0.580650	-0.963787
C53	C	1.243548	-0.376480	-0.922544
C54	C	1.243530	-0.376501	-0.839993
C55	C	1.192946	-0.444571	-0.798706
C56	C	1.142385	-0.512625	-0.839972
C57	C	1.091806	-0.580699	-0.798687
C58	C	1.041241	-0.648749	-0.839952
C59	C	1.041265	-0.648720	-0.922500
C60	C	1.192922	-0.444600	-0.716158
C61	C	1.091785	-0.580726	-0.716134
C62	C	1.142309	-0.512811	-0.175482
C63	C	1.142448	-0.512548	-0.087625
H64	H	0.717608	-0.704619	-0.522877
H65	H	1.009295	-1.078983	-0.345126
C66	C	1.101006	-0.824075	-0.227077
C67	C	1.100897	-0.935249	-0.226331
H68	H	1.087350	-0.798331	-0.176229
H69	H	1.152037	-0.799177	-0.240916
H70	H	1.063692	-0.799320	-0.264584
H71	H	1.138214	-0.960003	-0.188828
H72	H	1.049858	-0.960157	-0.212483
C73	C	0.452202	-0.761293	-0.469634
C74	C	0.432264	-0.655913	-0.486818
H75	H	0.424200	-0.807540	-0.503889
H76	H	0.507267	-0.771026	-0.476852
H77	H	0.438646	-0.776783	-0.416509
H78	H	0.445825	-0.640421	-0.539942
H79	H	0.377186	-0.646175	-0.479607
C80	C	1.343523	-0.241940	-0.914275
C81	C	1.299143	-0.301657	-0.967923
H82	H	1.377848	-0.195749	-0.942294
H83	H	1.309090	-0.201231	-0.882083
H84	H	1.373738	-0.288342	-0.882072
H85	H	1.268924	-0.255255	-1.000122
H86	H	1.333580	-0.342369	-1.000129
C87	C	1.204050	-0.301310	-1.139213
C88	C	1.248603	-0.369679	-1.091736
H89	H	1.238376	-0.255113	-1.167226
H90	H	1.173952	-0.341837	-1.175597
H91	H	1.169617	-0.260600	-1.107010
H92	H	1.283032	-0.410395	-1.123939
H93	H	1.278715	-0.329148	-1.055348
C94	C	1.258569	-1.052085	-0.556145
C95	C	1.183632	-1.089471	-0.535343
H96	H	1.272155	-1.077950	-0.606978
H97	H	1.258209	-0.976677	-0.556847
H98	H	1.296165	-1.076292	-0.518724
H99	H	1.146035	-1.065258	-0.572761
H100	H	1.183986	-1.164895	-0.534647
H101	H	1.050590	-0.636152	-0.682525
H102	H	0.841380	-0.389116	-0.289281
C103	C	1.030217	-0.791938	-0.747089
C104	C	0.985651	-0.723576	-0.794558
H105	H	0.995899	-0.838126	-0.719058
H106	H	1.064637	-0.832648	-0.779292
H107	H	1.060329	-0.751398	-0.710713
H108	H	0.955543	-0.764115	-0.830939
H109	H	0.951217	-0.682862	-0.762352
C110	C	1.292898	-0.310053	-0.724470
C111	C	1.248497	-0.369806	-0.670800
H112	H	1.327205	-0.263872	-0.696467
H113	H	1.323127	-0.356426	-0.756655
H114	H	1.258473	-0.269325	-0.756677
H115	H	1.282922	-0.410541	-0.638596
H116	H	1.218266	-0.323427	-0.638601
H117	H	1.000100	-0.704125	-0.956105
H118	H	1.239894	-1.078429	-0.283406
C119	C	0.351035	-0.384175	-0.285598
C120	C	0.432205	-0.369776	-0.274936
H121	H	0.323022	-0.337930	-0.251350
H122	H	0.337532	-0.368686	-0.338721
H123	H	0.337502	-0.455675	-0.273940
H124	H	0.445740	-0.298278	-0.286599
H125	H	0.445714	-0.385258	-0.221801
H126	H	1.050698	-0.636024	-1.079942
C127	C	0.576074	-0.701180	-0.615574
C128	C	0.556087	-0.724038	-0.537271
H129	H	0.548067	-0.747422	-0.649828
H130	H	0.562564	-0.629688	-0.627216
H131	H	0.631145	-0.710945	-0.622782
H132	H	0.501016	-0.714265	-0.530061
H133	H	0.569591	-0.795546	-0.525625
H134	H	0.841424	-0.636432	-0.472394
H135	H	1.275348	-0.945547	-0.416658
C136	C	0.953671	-0.970847	-0.473295
C137	C	1.029106	-0.934995	-0.493778
H138	H	0.916392	-0.944965	-0.510423
H139	H	0.952965	-1.046257	-0.473385
H140	H	0.940492	-0.945618	-0.422186
H141	H	1.042287	-0.960231	-0.544885
H142	H	1.029813	-0.859569	-0.493696
H143	H	1.284703	-0.321090	-0.806402
H144	H	0.717556	-0.320996	-0.238824
H145	H	0.567778	-0.321019	-0.238845
