data_functionalizedCrystal
_audit_creation_method	'MofGen! by Chris Wilmer'
_symmetry_space_group_name_H-M	'P1'
_symmetry_Int_Tables_number	1
_symmetry_cell_setting	triclinic
loop_
_symmetry_equiv_pos_as_xyz
  x,y,z
_cell_length_a	12.811445
_cell_length_b	10.723024
_cell_length_c	9.798715
_cell_angle_alpha	90.001978
_cell_angle_beta	84.564891
_cell_angle_gamma	95.744118
loop_
_atom_site_label
_atom_site_type_symbol
_atom_site_fract_x
_atom_site_fract_y
_atom_site_fract_z
O1	O	1.393882	-0.168111	-0.285990
O2	O	1.088430	-0.186379	-0.248191
O3	O	1.248202	0.004366	-0.267957
O4	O	1.234110	-0.358856	-0.266223
O5	O	1.248190	0.004367	-0.040974
O6	O	1.088418	-0.186379	-0.021207
O7	O	1.393870	-0.168110	-0.059006
Zn8	Zn	1.241142	-0.177244	-0.004068
Zn9	Zn	1.241158	-0.177245	-0.303129
O10	O	1.234098	-0.358856	-0.039240
C11	C	1.049312	-0.185354	-0.129859
C12	C	0.932773	-0.182284	-0.115437
C13	C	0.713790	-0.176540	-0.335820
C14	C	0.604291	-0.173656	-0.322275
C15	C	0.604271	-0.173642	-0.074804
C16	C	0.713771	-0.176526	-0.088349
C17	C	0.768527	-0.177973	-0.218861
C18	C	0.878029	-0.180847	-0.232405
C19	C	0.878006	-0.180842	0.015065
C20	C	0.768507	-0.177958	0.028610
C21	C	1.247170	0.050861	-0.154340
C22	C	1.244102	0.189400	-0.153965
C23	C	1.432988	-0.169136	-0.177341
C24	C	1.549527	-0.172205	-0.191772
C25	C	1.235130	-0.405350	-0.152860
C26	C	1.238198	-0.543889	-0.153244
N27	N	1.241139	-0.177243	0.200032
C28	C	1.333502	0.264826	-0.165030
C29	C	1.330333	0.408014	-0.164643
N30	N	1.241169	-0.177236	-0.507230
C31	C	1.308223	-0.096803	0.259509
C32	C	1.308240	-0.096799	0.416670
H33	H	0.922610	-0.182025	-0.338674
H34	H	1.406866	0.472826	-0.174110
H35	H	1.165218	0.230831	-0.144212
Br36	Br	1.110624	0.348101	-0.137437
Br37	Br	1.145420	-0.292019	0.309073
H38	H	0.758374	-0.177712	-0.442088
H39	H	0.723909	-0.176784	0.134869
H40	H	0.922585	-0.182006	0.110302
Br41	Br	1.464990	0.195786	-0.181316
H42	H	0.559728	-0.172493	-0.417516
H43	H	0.559668	-0.172475	0.031452
H44	H	1.365640	-0.027933	0.194083
H45	H	1.365677	-0.027935	0.467849
H46	H	1.183737	-0.246113	0.441599
