data_functionalizedCrystal
_audit_creation_method	'MofGen! by Chris Wilmer'
_symmetry_space_group_name_H-M	'P1'
_symmetry_Int_Tables_number	1
_symmetry_cell_setting	triclinic
loop_
_symmetry_equiv_pos_as_xyz
  x,y,z
_cell_length_a	14.853566
_cell_length_b	14.044190
_cell_length_c	13.330367
_cell_angle_alpha	89.990836
_cell_angle_beta	89.995295
_cell_angle_gamma	88.413096
loop_
_atom_site_label
_atom_site_type_symbol
_atom_site_fract_x
_atom_site_fract_y
_atom_site_fract_z
O1	O	1.206178	0.123761	-0.083368
O2	O	0.944887	0.138506	-0.083386
O3	O	1.071607	-0.006856	-0.083358
O4	O	1.079458	0.269124	-0.083397
O5	O	1.071587	-0.006859	0.083489
O6	O	0.944866	0.138503	0.083461
O7	O	1.206158	0.123758	0.083479
Cu8	Cu	1.075510	0.131130	0.098704
Cu9	Cu	1.075534	0.131134	-0.098612
O10	O	1.079437	0.269120	0.083450
C11	C	0.911235	0.137837	0.000035
C12	C	0.810993	0.135835	0.000029
C13	C	0.387148	0.127372	-0.090900
C14	C	0.387147	0.127369	0.091003
C15	C	0.481330	0.129248	0.091000
C16	C	0.528426	0.130191	0.000045
C17	C	0.481339	0.129254	-0.090906
C18	C	0.528424	0.130195	0.181949
C19	C	0.622612	0.132075	0.181950
C20	C	0.669711	0.133011	0.090994
C21	C	0.622618	0.132073	0.000039
C22	C	0.669714	0.133016	-0.090916
C23	C	0.622624	0.132071	-0.181872
C24	C	0.528438	0.130190	-0.181862
C25	C	0.763896	0.134893	0.090984
C26	C	0.763906	0.134899	-0.090922
C27	C	1.068162	-0.042177	0.000068
C28	C	1.057918	-0.147416	0.000076
C29	C	1.111844	-0.397632	0.000041
C30	C	1.039204	-0.340098	0.000043
C31	C	1.049619	-0.232880	0.000062
C32	C	1.101431	-0.504860	0.000022
C33	C	1.239809	0.124428	0.000055
C34	C	1.340052	0.126429	0.000054
C35	C	1.082882	0.304441	0.000022
C36	C	1.093126	0.409680	0.000007
N37	N	1.075500	0.131127	0.237486
N38	N	1.075551	0.131130	-0.237393
C39	C	1.019418	0.195475	0.710096
C40	C	1.131674	0.066785	0.710089
C41	C	1.131664	0.066783	0.605071
C42	C	1.075530	0.131128	0.552560
C43	C	1.019408	0.195476	0.605068
C44	C	1.187792	0.002442	0.552555
C45	C	1.187785	0.002437	0.447531
C46	C	1.131646	0.066779	0.395018
C47	C	1.075520	0.131129	0.447532
C48	C	1.019387	0.195474	0.395022
C49	C	0.963256	0.259821	0.447534
C50	C	0.963269	0.259818	0.552556
C51	C	1.131633	0.066782	0.289996
C52	C	1.019377	0.195475	0.289993
H53	H	0.660981	0.132845	-0.255927
H54	H	0.348803	0.126599	-0.164954
H55	H	0.969193	-0.371365	0.000032
H56	H	0.802245	0.135663	-0.164989
H57	H	1.233499	-0.049942	0.595313
Cl58	Cl	1.258344	-0.078456	0.381522
Cl59	Cl	0.469235	0.128966	-0.296196
H60	H	1.181850	-0.366367	0.000056
H61	H	0.973662	0.247870	0.247246
H62	H	0.348796	0.126608	0.165054
Cl63	Cl	0.892697	0.340715	0.381509
H64	H	0.490071	0.129433	0.256000
Cl65	Cl	1.202199	-0.014099	0.223988
H66	H	0.660946	0.132843	0.256012
Cl67	Cl	0.892713	0.340707	0.618573
Cl68	Cl	0.948852	0.276361	0.776106
Cl69	Cl	1.202245	-0.014097	0.776100
Cl70	Cl	0.823091	0.136087	0.205319
