data_functionalizedCrystal
_audit_creation_method	'MofGen! by Chris Wilmer'
_symmetry_space_group_name_H-M	'P1'
_symmetry_Int_Tables_number	1
_symmetry_cell_setting	triclinic
loop_
_symmetry_equiv_pos_as_xyz
  x,y,z
_cell_length_a	6.817900
_cell_length_b	14.858565
_cell_length_c	10.943624
_cell_angle_alpha	93.396226
_cell_angle_beta	108.838799
_cell_angle_gamma	104.523916
loop_
_atom_site_label
_atom_site_type_symbol
_atom_site_fract_x
_atom_site_fract_y
_atom_site_fract_z
V1	V	-4.093440	-0.128646	-0.402911
O2	O	-4.074268	0.006207	-0.394871
O3	O	-4.049710	-0.255107	-0.400512
O4	O	-4.071744	-0.126656	-0.578472
O5	O	-4.052082	-0.123133	-0.215679
V6	V	-4.573003	-0.112517	-0.380473
O7	O	-4.363386	-0.164025	-0.452130
O8	O	-4.753254	-0.077137	-0.331254
O9	O	-4.393526	0.013944	-0.382873
O10	O	-4.709572	-0.247370	-0.388514
O11	O	-4.731758	-0.118029	-0.567706
O12	O	-4.371493	-0.114507	-0.204912
C13	C	-3.894983	-0.285936	-0.394248
C14	C	-3.940693	-0.389319	-0.393456
C15	C	-4.108001	-0.767890	-0.390576
C16	C	-4.061442	-0.662560	-0.391376
C17	C	-4.024347	-0.578608	-0.392015
C18	C	-3.977788	-0.473271	-0.392818
C19	C	-3.923088	-0.122082	-0.621252
C20	C	-3.986663	-0.121292	-0.764776
C21	C	-3.832405	-0.115971	-0.841909
C22	C	-4.008224	-0.194950	-0.948120
C23	C	-3.924150	-0.040915	-0.914302
C24	C	-4.161680	-0.200345	-0.869111
C25	C	-4.077537	-0.046240	-0.835269
C26	C	-4.253489	-0.125241	-0.941451
C27	C	-4.211595	0.044768	-0.389133
C28	C	-4.145124	0.148151	-0.389933
C29	C	-4.183490	-0.119083	-0.162126
C30	C	-4.099153	-0.119869	-0.018600
H31	H	-3.979584	-0.257819	-0.997245
O32	O	-4.111230	0.028797	-0.776438
C33	C	-3.952472	0.169611	-0.616966
C34	C	-3.914062	0.084651	-0.683472
H35	H	-3.793083	0.214803	-0.541809
H36	H	-4.073477	0.143707	-0.566190
H37	H	-4.019289	0.213256	-0.693746
H38	H	-3.847170	0.040971	-0.606775
H39	H	-3.793132	0.110618	-0.734277
H40	H	-3.824350	0.026448	-0.934876
H41	H	-3.653858	-0.112158	-0.798450
H42	H	-4.432128	-0.129179	-0.984706
H43	H	-4.261498	-0.267798	-0.848755
