data_functionalizedCrystal
_audit_creation_method	'MofGen! by Chris Wilmer'
_symmetry_space_group_name_H-M	'P1'
_symmetry_Int_Tables_number	1
_symmetry_cell_setting	triclinic
loop_
_symmetry_equiv_pos_as_xyz
  x,y,z
_cell_length_a	10.967819
_cell_length_b	12.811415
_cell_length_c	9.482900
_cell_angle_alpha	94.039455
_cell_angle_beta	68.706355
_cell_angle_gamma	83.237423
loop_
_atom_site_label
_atom_site_type_symbol
_atom_site_fract_x
_atom_site_fract_y
_atom_site_fract_z
O1	O	1.747468	0.070689	-0.568010
O2	O	1.369634	0.097064	-0.476830
O3	O	1.564764	-0.066389	-0.504160
O4	O	1.552339	0.234142	-0.540681
O5	O	1.525132	-0.033059	-0.256834
O6	O	1.330002	0.130394	-0.229504
O7	O	1.707837	0.104019	-0.320685
Cu8	Cu	1.515301	0.120250	-0.252512
Cu9	Cu	1.562170	0.080833	-0.545003
O10	O	1.512707	0.267472	-0.293355
C11	C	1.301392	0.114327	-0.341114
C12	C	1.157098	0.116097	-0.305198
C13	C	0.964172	0.101457	-0.380216
C14	C	1.113307	0.099621	-0.417328
C15	C	1.543037	-0.088090	-0.374961
C16	C	1.537327	-0.202407	-0.358464
C17	C	1.569786	-0.453549	-0.597123
C18	C	1.564422	-0.560960	-0.581630
C19	C	1.521227	-0.524643	-0.311982
C20	C	1.526591	-0.417231	-0.327476
C21	C	1.550873	-0.381689	-0.470051
C22	C	1.556246	-0.274276	-0.485546
C23	C	1.513041	-0.237960	-0.215898
C24	C	1.507677	-0.345372	-0.200404
C25	C	1.776079	0.086755	-0.456404
C26	C	1.920375	0.084984	-0.492330
C27	C	1.534434	0.289172	-0.422557
C28	C	1.540145	0.403488	-0.439064
N29	N	1.482345	0.147972	-0.046791
N30	N	1.595136	0.053102	-0.750725
C31	C	1.552440	0.089005	0.015624
C32	C	1.525030	0.112078	0.186865
H33	H	1.576021	-0.245340	-0.601639
N34	N	1.418644	0.201577	0.283997
H35	H	1.459429	0.254443	0.329953
H36	H	1.375666	0.237675	0.218730
H37	H	1.675440	-0.014472	0.175944
H38	H	0.993288	0.069527	-0.615790
H39	H	1.186216	0.084163	-0.540796
H40	H	1.501447	-0.553600	-0.195901
N41	N	1.060534	0.136604	-0.141649
H42	H	0.967682	0.135017	-0.138316
H43	H	1.083485	0.080145	-0.082348
H44	H	1.497646	-0.179439	-0.112427
H45	H	1.632740	0.021435	-0.057711
H46	H	1.402036	0.215535	0.026548
N47	N	0.868006	0.121742	-0.216482
H48	H	0.891294	0.065161	-0.157555
H49	H	0.873486	0.193472	-0.169678
N50	N	1.595995	-0.415206	-0.750894
H51	H	1.607170	-0.477030	-0.829048
H52	H	1.518897	-0.360955	-0.744473
H53	H	1.579819	-0.619466	-0.685104
N54	N	1.481506	-0.383712	-0.046637
H55	H	1.480983	-0.462662	-0.056102
H56	H	1.553294	-0.367482	-0.009231
