data_functionalizedCrystal
_audit_creation_method	'MofGen! by Chris Wilmer'
_symmetry_space_group_name_H-M	'P1'
_symmetry_Int_Tables_number	1
_symmetry_cell_setting	triclinic
loop_
_symmetry_equiv_pos_as_xyz
  x,y,z
_cell_length_a	9.130307
_cell_length_b	12.837943
_cell_length_c	12.837942
_cell_angle_alpha	85.171060
_cell_angle_beta	90.002954
_cell_angle_gamma	89.999550
loop_
_atom_site_label
_atom_site_type_symbol
_atom_site_fract_x
_atom_site_fract_y
_atom_site_fract_z
O1	O	0.121772	-1.402331	0.272138
O2	O	0.121781	-1.099198	0.258695
O3	O	0.121767	-1.244043	0.113850
O4	O	0.121785	-1.257486	0.416983
O5	O	-0.121832	-1.244038	0.113848
O6	O	-0.121818	-1.099192	0.258693
O7	O	-0.121827	-1.402326	0.272136
Cu8	Cu	-0.144065	-1.250759	0.265414
Cu9	Cu	0.144019	-1.250765	0.265417
O10	O	-0.121814	-1.257481	0.416981
C11	C	-0.000018	-1.060126	0.254153
C12	C	-0.000015	-0.943711	0.240608
N13	N	-0.346688	-1.250762	0.265413
C14	C	-0.000031	-1.239499	0.074780
C15	C	-0.000028	-1.225954	-0.041635
C16	C	-0.346690	-1.379084	0.137199
C17	C	-0.423357	-1.443252	0.073096
C18	C	-0.576691	-1.443263	0.073096
C19	C	-0.653360	-1.379095	0.137204
C20	C	-0.576693	-1.314927	0.201307
C21	C	-0.423356	-1.314926	0.201303
C22	C	-0.576691	-1.186601	0.329514
C23	C	-0.423357	-1.186595	0.329521
C24	C	-0.653360	-1.122434	0.393622
C25	C	-0.576693	-1.058270	0.457732
C26	C	-0.423350	-1.058263	0.457730
C27	C	-0.346690	-1.122426	0.393624
N28	N	0.346642	-1.250769	0.265411
C29	C	-0.000025	-1.441398	0.276679
C30	C	-0.000019	-1.557813	0.290223
C31	C	-0.000026	-0.718837	0.403437
C32	C	-0.000024	-0.609454	0.390716
C33	C	-0.000020	-0.615562	0.202445
C34	C	-0.000022	-0.724944	0.215166
C35	C	-0.000023	-0.776578	0.315666
C36	C	-0.000014	-0.885962	0.328386
C37	C	-0.000020	-0.892067	0.140116
C38	C	-0.000018	-0.782685	0.127395
C39	C	-0.000002	-1.388784	-0.266510
C40	C	0.000000	-1.376062	-0.375892
C41	C	-0.000009	-1.187791	-0.369785
C42	C	-0.000012	-1.200513	-0.260402
C43	C	-0.000011	-1.301012	-0.208769
C44	C	-0.000024	-1.313732	-0.099384
C45	C	-0.000024	-1.125462	-0.093279
C46	C	-0.000021	-1.112741	-0.202661
C47	C	-0.000012	-1.262025	0.456052
C48	C	-0.000005	-1.275569	0.572467
H49	H	-0.221838	-1.379091	0.137202
H50	H	0.000012	-1.447536	-0.422901
F51	F	-0.341754	-1.511537	0.004866
H52	H	0.000005	-1.105969	-0.411844
H53	H	-0.778212	-1.379098	0.137191
H54	H	-0.000016	-1.030917	-0.244717
F55	F	-0.000009	-0.773792	0.510394
F56	F	0.000002	-0.953527	0.046697
F57	F	-0.658287	-1.511552	0.004865
H58	H	-0.000042	-1.053992	-0.046254
H59	H	-0.639126	-1.006024	0.509920
H60	H	-0.000017	-0.928000	0.410218
H61	H	-0.000029	-1.395564	-0.057346
F62	F	-0.183498	-1.122430	0.393620
F63	F	-0.816552	-1.122440	0.393617
H64	H	-0.000140	-0.573502	0.120623
F65	F	-0.000032	-0.548006	0.484135
H66	H	-0.360935	-1.006005	0.509927
F67	F	-0.000032	-1.495741	-0.211555
F68	F	-0.000022	-0.727721	0.020442
