data_functionalizedCrystal
_audit_creation_method	'MofGen! by Chris Wilmer'
_symmetry_space_group_name_H-M	'P1'
_symmetry_Int_Tables_number	1
_symmetry_cell_setting	triclinic
loop_
_symmetry_equiv_pos_as_xyz
  x,y,z
_cell_length_a	14.395555
_cell_length_b	14.560438
_cell_length_c	14.560438
_cell_angle_alpha	59.996693
_cell_angle_beta	90.000916
_cell_angle_gamma	60.002891
loop_
_atom_site_label
_atom_site_type_symbol
_atom_site_fract_x
_atom_site_fract_y
_atom_site_fract_z
Zr1	Zr	0.894878	1.005356	-0.120612
O2	O	0.746552	1.196960	-0.267269
O3	O	0.940347	0.813749	-0.075645
O4	O	0.940344	1.005360	-0.267261
O5	O	0.746560	1.005346	0.075488
O6	O	1.093211	1.005367	-0.267265
O7	O	0.746556	1.005348	-0.075652
O8	O	1.093217	0.662609	0.075502
O9	O	0.746553	1.348104	-0.267279
O10	O	1.073823	0.892566	-0.056480
O11	O	0.959743	0.892559	0.056318
O12	O	0.959739	1.118156	-0.169286
O13	O	0.845659	1.118149	-0.056489
Zr14	Zr	1.138690	1.005363	0.120435
Zr15	Zr	1.138684	1.005367	-0.120617
Zr16	Zr	0.894884	1.005352	0.120441
Zr17	Zr	0.894880	1.246413	-0.120627
Zr18	Zr	1.138688	0.764306	0.120450
O19	O	1.093221	1.196969	0.075468
O20	O	1.093212	1.196975	-0.267277
O21	O	0.746561	1.196954	0.075476
O22	O	1.287016	0.813759	0.267092
O23	O	1.287007	0.813764	-0.075653
O24	O	0.940356	0.813743	0.267100
O25	O	1.287009	1.005373	-0.075665
O26	O	1.093225	1.005358	0.267085
O27	O	0.940357	1.005351	0.267088
O28	O	1.287013	1.005370	0.075476
O29	O	0.940346	1.348112	-0.267283
O30	O	1.093222	0.662606	0.267107
O31	O	1.287015	0.662615	0.267102
O32	O	1.287010	0.662618	0.075498
O33	O	0.746558	1.348100	-0.075674
O34	O	0.940351	1.348109	-0.075679
O35	O	1.073829	0.892562	0.169110
O36	O	1.187909	0.892569	0.056312
O37	O	1.073825	1.118160	-0.056494
O38	O	0.959745	1.118153	0.056303
C39	C	1.016782	0.703834	-0.000069
C40	C	1.016781	0.601499	-0.000062
C41	C	0.932561	0.636710	-0.083343
C42	C	0.932566	0.540570	-0.083372
C43	C	1.101016	0.374008	0.083171
C44	C	1.101014	0.470147	0.083194
C45	C	0.711821	1.005346	-0.000081
C46	C	0.608319	1.005341	-0.000079
C47	C	0.609934	0.882339	0.061426
C48	C	0.516920	0.943827	0.105999
C49	C	0.516904	0.943858	-0.044618
C50	C	0.516668	1.066829	0.044555
C51	C	0.516667	1.066843	-0.106121
C52	C	0.423635	1.128421	-0.061575
C53	C	1.321748	1.005373	-0.000095
C54	C	1.425249	1.005377	-0.000098
C55	C	1.016776	1.005364	-0.301608
C56	C	1.016774	1.005366	-0.403941
C57	C	1.016786	1.306885	-0.000108
C58	C	1.016787	1.409220	-0.000114
C59	C	0.957224	1.123120	-0.510901
C60	C	0.957237	1.123114	-0.607050
C61	C	1.076351	0.887589	-0.489265
C62	C	1.076344	0.887597	-0.393118
C63	C	1.016792	1.005354	0.301431
C64	C	1.016794	1.005352	0.403764
C65	C	1.321745	0.703847	-0.000076
C66	C	1.425246	0.601517	-0.000072
C67	C	1.016790	0.703829	0.301451
C68	C	1.016791	0.601492	0.403790
C69	C	1.321753	0.703842	0.301443
C70	C	1.425257	0.601510	0.403781
C71	C	0.711815	1.306876	-0.301620
C72	C	0.608311	1.409208	-0.403957
C73	C	0.711823	1.306871	-0.000101
C74	C	0.608322	1.409201	-0.000105
C75	C	1.016779	1.306890	-0.301627
C76	C	1.016777	1.409226	-0.403967
C77	C	1.414323	0.553438	-0.058944
C78	C	1.511577	0.457295	-0.058944
C79	C	1.630675	0.457316	0.058809
C80	C	1.533422	0.553463	0.058802
C81	C	1.076343	0.553414	0.510746
C82	C	1.076332	0.457266	0.606901
C83	C	0.957216	0.457280	0.489131
C84	C	0.957221	0.553432	0.392978
C85	C	1.533432	0.553436	0.392983
C86	C	1.630681	0.457292	0.489143
C87	C	1.511566	0.457302	0.606896
C88	C	1.414319	0.553451	0.510737
H89	H	1.169594	0.267053	0.150956
F90	F	0.842928	0.578055	-0.172011
H91	H	1.718759	0.418154	0.480344
F92	F	1.190661	0.432666	0.171834
H93	H	0.908718	0.418137	0.480341
H94	H	1.502674	0.418159	0.693989
H95	H	0.515995	0.891841	0.195670
H96	H	1.542325	0.592613	0.106742
H97	H	1.124844	0.592545	0.519555
F98	F	1.139711	0.406105	0.720730
H99	H	0.908722	0.592582	0.305884
H100	H	1.542343	0.592565	0.305898
F101	F	1.299181	0.604624	0.522233
F102	F	1.745808	0.406161	0.121467
F103	F	1.299197	0.604582	-0.121607
F104	F	0.893858	1.248444	-0.720884
F105	F	0.842916	0.776502	-0.171954
F106	F	0.714184	0.746394	0.129498
H107	H	0.344007	1.232515	-0.113584
F108	F	0.517745	1.134729	0.093916
H109	H	0.517634	1.118785	-0.195773
F110	F	0.515711	0.875883	-0.093847
H111	H	1.124850	0.791706	-0.480467
F112	F	0.893831	1.248460	-0.522423
H113	H	1.124842	0.791702	-0.306020
H114	H	1.502673	0.418155	-0.106885
