data_functionalizedCrystal
_audit_creation_method	'MofGen! by Chris Wilmer'
_symmetry_space_group_name_H-M	'P1'
_symmetry_Int_Tables_number	1
_symmetry_cell_setting	triclinic
loop_
_symmetry_equiv_pos_as_xyz
  x,y,z
_cell_length_a	6.817900
_cell_length_b	12.200863
_cell_length_c	16.418042
_cell_angle_alpha	94.318107
_cell_angle_beta	103.389568
_cell_angle_gamma	107.143441
loop_
_atom_site_label
_atom_site_type_symbol
_atom_site_fract_x
_atom_site_fract_y
_atom_site_fract_z
V1	V	-4.044187	-0.159645	-0.261239
O2	O	-4.012311	0.006712	-0.256179
O3	O	-4.013913	-0.315627	-0.259537
O4	O	-3.995024	-0.157610	-0.375136
O5	O	-4.031331	-0.152398	-0.139779
V6	V	-4.525565	-0.139697	-0.246701
O7	O	-4.310150	-0.203403	-0.293129
O8	O	-4.709799	-0.095940	-0.214811
O9	O	-4.332632	0.016284	-0.248404
O10	O	-4.674837	-0.306054	-0.251762
O11	O	-4.655817	-0.146944	-0.368162
O12	O	-4.351521	-0.141732	-0.132804
C13	C	-3.863348	-0.353639	-0.255437
C14	C	-3.919878	-0.481158	-0.254805
C15	C	-3.839252	-0.152072	-0.402895
C16	C	-3.880459	-0.151440	-0.496007
C17	C	-4.157978	-0.155707	-0.714495
C18	C	-4.196676	-0.155104	-0.801982
C19	C	-3.831129	-0.143629	-0.793433
C20	C	-3.792429	-0.144224	-0.705947
C21	C	-3.955864	-0.150269	-0.666481
C22	C	-4.033262	-0.149071	-0.841455
C23	C	-4.075219	-0.148417	-0.936312
C24	C	-3.913904	-0.150921	-0.571617
C25	C	-4.023338	-0.714631	-0.253653
C26	C	-3.965757	-0.584710	-0.254294
C27	C	-4.146540	0.054290	-0.252501
C28	C	-4.069248	0.181809	-0.253139
C29	C	-4.170636	-0.147274	-0.105041
C30	C	-4.108666	-0.147900	-0.011929
H31	H	-4.291058	-0.160628	-0.682365
H32	H	-4.361253	-0.159531	-0.841072
N33	N	-3.574429	-0.138366	-0.654150
H34	H	-3.514588	-0.066886	-0.609488
H35	H	-3.476925	-0.134502	-0.692483
N36	N	-3.654879	-0.137133	-0.836007
H37	H	-3.520966	-0.133778	-0.792312
H38	H	-3.627321	-0.065168	-0.863948
