data_functionalizedCrystal
_audit_creation_method	'MofGen! by Chris Wilmer'
_symmetry_space_group_name_H-M	'P1'
_symmetry_Int_Tables_number	1
_symmetry_cell_setting	triclinic
loop_
_symmetry_equiv_pos_as_xyz
  x,y,z
_cell_length_a	14.044220
_cell_length_b	11.792241
_cell_length_c	10.268362
_cell_angle_alpha	90.000374
_cell_angle_beta	89.993803
_cell_angle_gamma	91.308853
loop_
_atom_site_label
_atom_site_type_symbol
_atom_site_fract_x
_atom_site_fract_y
_atom_site_fract_z
O1	O	0.129987	-1.519112	-0.108177
O2	O	0.463320	-1.185778	0.225157
O3	O	0.796654	-0.852445	0.558490
O4	O	0.143384	-1.190028	-0.108207
O5	O	0.476717	-0.856695	0.225126
O6	O	0.810050	-0.523362	0.558459
O7	O	-0.001325	-1.349630	-0.108180
O8	O	0.332009	-1.016297	0.225154
O9	O	0.665342	-0.682964	0.558487
O10	O	0.274695	-1.359509	-0.108204
O11	O	0.608029	-1.026176	0.225129
O12	O	0.941362	-0.692843	0.558462
O13	O	-0.001331	-1.349615	0.108421
O14	O	0.332003	-1.016281	0.441754
O15	O	0.665336	-0.682948	0.775088
O16	O	0.143378	-1.190012	0.108393
O17	O	0.476711	-0.856679	0.441727
O18	O	0.810044	-0.523346	0.775060
O19	O	0.129981	-1.519096	0.108424
O20	O	0.463314	-1.185763	0.441757
O21	O	0.796648	-0.852429	0.775091
Cu22	Cu	0.136679	-1.354553	0.128186
Cu23	Cu	0.470012	-1.021219	0.461519
Cu24	Cu	0.803345	-0.687886	0.794853
Cu25	Cu	0.136686	-1.354571	-0.127969
Cu26	Cu	0.470019	-1.021238	0.205364
Cu27	Cu	0.803353	-0.687905	0.538697
O28	O	0.274689	-1.359494	0.108396
O29	O	0.608023	-1.026160	0.441730
O30	O	0.941356	-0.692827	0.775063
C31	C	0.142539	-1.147650	0.000089
C32	C	0.475872	-0.814317	0.333422
C33	C	0.809206	-0.480984	0.666756
C34	C	0.140020	-1.021400	0.000078
C35	C	0.473354	-0.688067	0.333411
C36	C	0.806687	-0.354734	0.666745
C37	C	-0.036664	-1.345298	0.000121
C38	C	0.296669	-1.011965	0.333454
C39	C	0.630002	-0.678631	0.666788
C40	C	-0.141956	-1.332399	0.000121
C41	C	0.191377	-0.999066	0.333455
C42	C	0.524710	-0.665732	0.666788
C43	C	0.130826	-1.561474	0.000125
C44	C	0.464159	-1.228140	0.333458
C45	C	0.797492	-0.894807	0.666791
C46	C	0.133344	-1.687724	0.000127
C47	C	0.466678	-1.354391	0.333461
C48	C	0.800011	-1.021057	0.666794
C49	C	-0.334739	-1.308817	0.000100
C50	C	-0.001406	-0.975484	0.333434
C51	C	0.331928	-0.642150	0.666767
C52	C	-0.391902	-1.400302	0.000105
C53	C	-0.058569	-1.066969	0.333438
C54	C	0.274765	-0.733635	0.666772
C55	C	-0.499173	-1.387181	0.000093
C56	C	-0.165840	-1.053847	0.333427
C57	C	0.167494	-0.720514	0.666760
C58	C	-0.227458	-1.321937	0.000112
C59	C	0.105875	-0.988603	0.333445
C60	C	0.439209	-0.655270	0.666779
C61	C	0.310029	-1.363826	0.000093
C62	C	0.643362	-1.030493	0.333426
C63	C	0.976696	-0.697159	0.666760
C64	C	0.415321	-1.376725	0.000084
C65	C	0.748654	-1.043392	0.333417
C66	C	1.081988	-0.710058	0.666751
N67	N	0.136673	-1.354548	0.308352
N68	N	0.470006	-1.021215	0.641685
N69	N	0.803340	-0.687881	0.975019
C70	C	0.135389	-0.790253	0.000116
C71	C	0.468722	-0.456920	0.333449
C72	C	0.802056	-0.123587	0.666782
C73	C	0.137962	-0.918880	0.000095
C74	C	0.471296	-0.585547	0.333428
C75	C	0.804629	-0.252213	0.666762
N76	N	0.136684	-1.354584	-0.308135
N77	N	0.470017	-1.021251	0.025198
N78	N	0.803351	-0.687918	0.358531
C79	C	0.136684	-1.354565	0.574022
C80	C	0.470017	-1.021232	0.907356
C81	C	0.803351	-0.687899	1.240689
C82	C	0.136681	-1.354552	0.426185
C83	C	0.470014	-1.021219	0.759518
C84	C	0.803347	-0.687886	1.092851
H85	H	-0.366361	-1.220647	0.000089
H86	H	-0.033028	-0.887314	0.333422
H87	H	0.300305	-0.553980	0.666756
H88	H	-0.360278	-1.488479	0.000026
H89	H	-0.026945	-1.155146	0.333359
H90	H	0.306389	-0.821812	0.666692
