data_functionalizedCrystal
_audit_creation_method	'MofGen! by Chris Wilmer'
_symmetry_space_group_name_H-M	'P1'
_symmetry_Int_Tables_number	1
_symmetry_cell_setting	triclinic
loop_
_symmetry_equiv_pos_as_xyz
  x,y,z
_cell_length_a	21.395362
_cell_length_b	10.686285
_cell_length_c	21.395355
_cell_angle_alpha	85.619443
_cell_angle_beta	89.956060
_cell_angle_gamma	85.645931
loop_
_atom_site_label
_atom_site_type_symbol
_atom_site_fract_x
_atom_site_fract_y
_atom_site_fract_z
Zn1	Zn	0.977081	-0.501939	-0.335532
Zn2	Zn	0.985062	-0.712908	-0.222746
Zn3	Zn	0.872298	-0.501998	-0.230731
Zn4	Zn	0.880345	-0.712934	-0.327450
O5	O	0.928696	-0.607445	-0.279115
O6	O	1.065816	-0.529889	-0.320611
O7	O	0.970076	-0.684945	-0.136127
O8	O	0.879490	-0.325422	-0.251357
O9	O	1.071680	-0.684888	-0.237748
O10	O	0.956473	-0.325378	-0.328354
O11	O	0.887229	-0.529990	-0.141993
O12	O	0.785689	-0.530015	-0.243520
O13	O	0.893204	-0.684932	-0.416201
O14	O	0.791601	-0.684989	-0.314579
O15	O	0.964276	-0.529915	-0.422138
O16	O	0.977879	-0.889481	-0.229911
O17	O	0.900944	-0.889500	-0.306837
C18	C	0.765911	-0.607512	-0.279040
C19	C	0.696272	-0.607571	-0.279021
C20	C	0.666658	-0.688373	-0.315957
C21	C	0.601221	-0.688342	-0.315987
C22	C	0.565402	-0.607522	-0.279068
C23	C	0.595024	-0.526705	-0.242129
C24	C	0.660459	-0.526729	-0.242106
C25	C	0.461288	-0.597357	-0.223048
C26	C	0.395855	-0.597342	-0.223070
C27	C	0.363578	-0.607440	-0.279140
C28	C	0.396745	-0.617580	-0.335189
C29	C	0.462180	-0.617604	-0.335165
C30	C	0.494448	-0.607486	-0.279089
C31	C	0.263010	-0.688213	-0.316111
C32	C	0.197572	-0.688173	-0.316141
C33	C	0.191376	-0.526542	-0.242278
C34	C	0.256813	-0.526575	-0.242254
C35	C	0.292626	-0.607417	-0.279169
C36	C	0.941168	-0.935273	-0.266644
C37	C	0.946560	-1.075519	-0.261330
C38	C	1.092117	-0.607379	-0.279191
C39	C	1.161757	-0.607351	-0.279223
C40	C	0.928747	-0.607420	-0.442539
C41	C	0.928769	-0.607409	-0.512181
C42	C	0.916194	-0.278338	-0.291648
C43	C	0.910866	-0.138091	-0.296989
C44	C	0.965774	-0.526688	-0.547987
C45	C	0.965771	-0.526634	-0.613424
C46	C	0.928771	-0.607323	-0.643053
C47	C	0.891758	-0.688049	-0.607238
C48	C	0.891757	-0.688092	-0.541802
C49	C	0.928146	-0.720937	-0.742404
C50	C	0.928151	-0.720896	-0.807838
C51	C	0.928770	-0.607189	-0.844878
C52	C	0.929396	-0.493520	-0.816476
C53	C	0.929395	-0.493563	-0.751040
C54	C	0.928767	-0.607284	-0.714006
C55	C	0.965773	-0.526403	-0.951640
C56	C	0.965766	-0.526347	-1.017078
C57	C	0.891756	-0.687773	-1.010891
C58	C	0.891760	-0.687818	-0.945453
C59	C	0.928772	-0.607135	-0.915832
C60	C	0.928678	-0.607380	-0.116330
C61	C	0.928764	-0.607035	-0.046702
H62	H	0.489181	-0.625857	-0.380802
H63	H	0.929901	-0.400930	-0.846633
H64	H	0.995904	-0.460894	-0.642584
H65	H	0.981242	-1.129246	-0.226729
O66	O	0.851847	-0.774798	-1.042842
H67	H	0.801852	-0.753174	-1.031070
O68	O	1.005692	-0.439663	-0.516041
H69	H	0.975215	-0.375499	-0.488641
O70	O	0.301645	-0.775383	-0.355933
H71	H	0.270055	-0.831550	-0.381632
O72	O	0.864919	-1.066953	-0.342819
H73	H	0.890659	-1.006830	-0.376990
H74	H	0.929904	-0.401010	-0.727918
O75	O	0.851828	-0.774865	-0.906840
H76	H	0.866323	-0.873891	-0.915640
H77	H	0.995907	-0.460699	-0.927521
H78	H	0.861630	-0.753743	-0.631366
O79	O	1.005682	-0.439282	-1.055703
H80	H	1.031421	-0.383199	-1.024109
O81	O	0.569260	-0.775498	-0.355817
H82	H	0.541838	-0.839568	-0.325278
O83	O	0.927468	-0.843486	-0.838472
H84	H	0.927022	-0.922558	-0.801724
O85	O	0.927470	-0.843583	-0.702454
H86	H	0.927042	-0.922614	-0.733195
H87	H	0.861620	-0.753823	-0.512649
H88	H	0.695813	-0.754199	-0.346018
H89	H	0.173462	-0.753969	-0.346223
O90	O	0.361946	-0.628451	-0.395675
H91	H	0.335354	-0.713901	-0.391380
O92	O	0.152754	-0.439379	-0.202451
H93	H	0.102277	-0.452943	-0.208667
O94	O	0.288764	-0.439438	-0.202410
H95	H	0.320675	-0.495838	-0.168339
O96	O	0.360083	-0.586399	-0.162622
H97	H	0.393517	-0.579353	-0.123632
H98	H	0.565855	-0.460899	-0.212071
O99	O	0.496100	-0.586469	-0.162569
H100	H	0.462047	-0.579435	-0.123599
O101	O	0.692407	-0.439599	-0.202253
H102	H	0.656510	-0.383402	-0.176580
