data_functionalizedCrystal
_audit_creation_method	'MofGen! by Chris Wilmer'
_symmetry_space_group_name_H-M	'P1'
_symmetry_Int_Tables_number	1
_symmetry_cell_setting	triclinic
loop_
_symmetry_equiv_pos_as_xyz
  x,y,z
_cell_length_a	10.654550
_cell_length_b	15.538191
_cell_length_c	9.130313
_cell_angle_alpha	90.002806
_cell_angle_beta	89.996220
_cell_angle_gamma	65.878499
loop_
_atom_site_label
_atom_site_type_symbol
_atom_site_fract_x
_atom_site_fract_y
_atom_site_fract_z
O1	O	1.606169	0.131911	-0.121900
O2	O	1.234815	0.144479	-0.121874
O3	O	1.492779	0.001538	-0.121899
O4	O	1.348205	0.274853	-0.121875
O5	O	1.492775	0.001542	0.121700
O6	O	1.234811	0.144483	0.121725
O7	O	1.606164	0.131915	0.121699
Cu8	Cu	1.420487	0.138200	0.143954
Cu9	Cu	1.420492	0.138195	-0.144129
O10	O	1.348200	0.274856	0.121724
C11	C	1.188446	0.143559	-0.000072
C12	C	1.050294	0.140798	-0.000063
C13	C	0.931464	0.224959	-0.000077
C14	C	0.801659	0.222359	-0.000103
C15	C	0.909528	0.051429	-0.000106
C16	C	1.039331	0.054030	-0.000070
C17	C	0.869186	0.323644	-0.000082
C18	C	0.739380	0.321045	-0.000107
C19	C	1.507903	-0.033457	-0.000105
C20	C	1.552959	-0.137736	-0.000123
C21	C	1.105338	-0.428451	-0.000061
C22	C	1.147707	-0.526440	-0.000061
C23	C	1.386021	-0.547326	-0.000078
C24	C	1.343672	-0.449337	-0.000085
C25	C	1.203329	-0.389906	-0.000075
C26	C	1.441663	-0.410792	-0.000099
C27	C	1.399317	-0.312812	-0.000099
C28	C	1.258980	-0.253375	-0.000085
C29	C	1.160983	-0.291926	-0.000075
C30	C	1.582005	-0.470224	-0.000099
C31	C	1.679996	-0.431680	-0.000113
C32	C	1.637651	-0.333697	-0.000123
C33	C	1.497314	-0.274261	-0.000109
C34	C	1.735648	-0.295147	-0.000133
C35	C	1.693302	-0.197166	-0.000133
C36	C	1.454968	-0.176280	-0.000109
C37	C	1.652533	0.132836	-0.000106
C38	C	1.790686	0.135597	-0.000125
C39	C	1.333076	0.309851	-0.000073
C40	C	1.288020	0.414130	-0.000065
N41	N	1.420493	0.138202	0.346577
N42	N	1.420499	0.138185	-0.346752
C43	C	1.534731	0.074930	0.423218
C44	C	1.534733	0.074918	0.576555
C45	C	1.306251	0.201461	0.576596
C46	C	1.306246	0.201467	0.423262
C47	C	1.666646	0.001874	0.423196
C48	C	1.666648	0.001863	0.576532
H49	H	0.900584	-0.019215	-0.000135
H50	H	0.679765	0.350870	0.105064
F51	F	1.682728	-0.092481	0.368782
F52	F	0.883943	0.374097	0.133173
F53	F	1.011613	-0.228670	-0.000079
F54	F	1.535379	-0.610585	-0.000077
H55	H	0.680267	0.358226	-0.102057
F56	F	0.896599	0.364713	-0.137543
F57	F	1.305598	-0.113025	-0.000112
F58	F	1.771841	0.031782	0.361020
F59	F	1.668438	-0.087299	0.638683
H60	H	1.224505	-0.173594	-0.000076
F61	F	0.955968	-0.365195	-0.000065
H62	H	1.755637	0.017955	0.618144
H63	H	1.067900	-0.557817	-0.000028
H64	H	1.616479	-0.550006	-0.000112
F65	F	1.829355	-0.494939	-0.000113
H66	H	1.773097	-0.165783	-0.000143
F67	F	1.165796	-0.035546	-0.000027
H68	H	1.849915	-0.343549	-0.000127
F69	F	1.184652	0.268797	0.341695
H70	H	1.213233	0.252968	0.639049
