data_functionalizedCrystal
_audit_creation_method	'MofGen! by Chris Wilmer'
_symmetry_space_group_name_H-M	'P1'
_symmetry_Int_Tables_number	1
_symmetry_cell_setting	triclinic
loop_
_symmetry_equiv_pos_as_xyz
  x,y,z
_cell_length_a	25.639242
_cell_length_b	25.639239
_cell_length_c	25.639233
_cell_angle_alpha	90.018747
_cell_angle_beta	89.977834
_cell_angle_gamma	89.965787
loop_
_atom_site_label
_atom_site_type_symbol
_atom_site_fract_x
_atom_site_fract_y
_atom_site_fract_z
Zn1	Zn	0.799225	0.208277	-0.295742
Zn2	Zn	1.299225	0.708277	0.204258
Zn3	Zn	0.799149	0.295696	-0.208307
Zn4	Zn	1.299149	0.795696	0.291693
Zn5	Zn	0.711801	0.208269	-0.208306
Zn6	Zn	1.211801	0.708269	0.291694
Zn7	Zn	0.711746	0.295676	-0.295696
Zn8	Zn	1.211746	0.795676	0.204304
O9	O	0.755480	0.251979	-0.252013
O10	O	1.255480	0.751979	0.247987
O11	O	0.872380	0.219884	-0.284163
O12	O	1.372380	0.719884	0.215837
O13	O	0.787553	0.284103	-0.135141
O14	O	1.287553	0.784103	0.364859
O15	O	0.723453	0.135105	-0.219924
O16	O	1.223453	0.635105	0.280076
O17	O	0.872324	0.284111	-0.219924
O18	O	1.372324	0.784111	0.280076
O19	O	0.787683	0.135111	-0.284163
O20	O	1.287683	0.635111	0.215837
O21	O	0.723379	0.219871	-0.135141
O22	O	1.223379	0.719871	0.364859
O23	O	0.638629	0.219853	-0.219880
O24	O	1.138629	0.719853	0.280120
O25	O	0.723360	0.284078	-0.368868
O26	O	1.223360	0.784078	0.131132
O27	O	0.638589	0.284070	-0.284085
O28	O	1.138589	0.784070	0.215915
O29	O	0.787630	0.219866	-0.368901
O30	O	1.287630	0.719866	0.131099
O31	O	0.787499	0.368858	-0.219880
O32	O	1.287499	0.868858	0.280120
O33	O	0.723286	0.368844	-0.284085
O34	O	1.223286	0.868844	0.215915
C35	C	0.755392	0.387822	-0.251989
C36	C	1.255392	0.887822	0.248011
C37	C	0.755403	0.445936	-0.251996
C38	C	1.255403	0.945936	0.248004
C39	C	0.619638	0.251959	-0.251977
C40	C	1.119638	0.751959	0.248023
C41	C	0.561524	0.251963	-0.251975
C42	C	1.061524	0.751963	0.248025
C43	C	0.755497	0.251970	-0.388386
C44	C	1.255497	0.751970	0.111614
C45	C	0.755504	0.251966	-0.446500
C46	C	1.255504	0.751966	0.053500
C47	C	0.201149	0.285473	-0.285413
C48	C	0.701149	0.785473	0.214587
C49	C	0.146544	0.285477	-0.285421
C50	C	0.646544	0.785477	0.214579
O51	O	0.118297	0.313943	-0.313821
O52	O	0.618297	0.813943	0.186179
N53	N	0.119241	0.251994	-0.252047
N54	N	0.619241	0.751994	0.247953
C55	C	0.146545	0.218502	-0.218666
C56	C	0.646545	0.718502	0.281334
O57	O	0.118308	0.190022	-0.190280
O58	O	0.618308	0.690022	0.309720
C59	C	0.201149	0.218496	-0.218661
C60	C	0.701149	0.718496	0.281339
C61	C	0.228449	0.251985	-0.252034
C62	C	0.728449	0.751985	0.247966
C63	C	0.228449	0.318959	-0.318783
C64	C	0.728449	0.818959	0.181217
C65	C	0.283049	0.318956	-0.318774
C66	C	0.783049	0.818956	0.181226
C67	C	0.310350	0.285468	-0.285395
C68	C	0.810350	0.785468	0.214605
C69	C	0.283049	0.251983	-0.252024
C70	C	0.783049	0.751983	0.247976
C71	C	0.228452	0.185002	-0.185283
C72	C	0.728452	0.685002	0.314717
C73	C	0.283059	0.185000	-0.185281
C74	C	0.783059	0.685000	0.314719
C75	C	0.310359	0.218488	-0.218654
C76	C	0.810359	0.718488	0.281346
C77	C	0.364950	0.218492	-0.218636
C78	C	0.864950	0.718492	0.281364
N79	N	0.392253	0.251974	-0.252010
N80	N	0.892253	0.751974	0.247990
C81	C	0.364953	0.285463	-0.285389
C82	C	0.864953	0.785463	0.214611
C83	C	0.031875	0.218515	-0.218680
C84	C	0.531875	0.718515	0.281320
C85	C	-0.022728	0.218523	-0.218683
C86	C	0.477272	0.718523	0.281317
C87	C	-0.022725	0.285497	-0.285438
C88	C	0.477275	0.785497	0.214562
C89	C	0.031878	0.285492	-0.285433
C90	C	0.531878	0.785492	0.214567
C91	C	0.059178	0.251998	-0.252054
C92	C	0.559178	0.751998	0.247946
C93	C	0.479618	0.285455	-0.285368
C94	C	0.979618	0.785455	0.214632
C95	C	0.534223	0.285451	-0.285354
C96	C	1.034223	0.785451	0.214646
C97	C	0.534216	0.218475	-0.218601
C98	C	1.034216	0.718475	0.281399
C99	C	0.479615	0.218481	-0.218612
C100	C	0.979615	0.718481	0.281388
C101	C	0.452318	0.251972	-0.252000
C102	C	0.952318	0.751972	0.248000
O103	O	0.393232	0.190038	-0.190252
O104	O	0.893232	0.690038	0.309748
O105	O	0.393197	0.313933	-0.313776
O106	O	0.893197	0.813933	0.186224
C107	C	0.891853	0.252000	-0.252049
C108	C	1.391853	0.752000	0.247951
C109	C	0.949967	0.252009	-0.252064
C110	C	1.449967	0.752009	0.247936
C111	C	0.755583	0.115606	-0.252048
C112	C	1.255583	0.615606	0.247952
C113	C	0.755627	0.057492	-0.252064
C114	C	1.255627	0.557492	0.247936
C115	C	0.789004	0.806294	-0.218638
C116	C	1.289004	1.306294	0.281362
C117	C	0.789024	0.860898	-0.218645
C118	C	1.289024	1.360898	0.281355
O119	O	0.817502	0.889131	-0.190257
O120	O	1.317502	1.389131	0.309743
N121	N	0.755572	0.888218	-0.252048
N122	N	1.255572	1.388218	0.247952
C123	C	0.722102	0.860932	-0.285449
C124	C	1.222102	1.360932	0.214551
O125	O	0.693651	0.889184	-0.313861
O126	O	1.193651	1.389184	0.186139
C127	C	0.722085	0.806328	-0.285444
C128	C	1.222085	1.306328	0.214556
C129	C	0.755535	0.779011	-0.252036
C130	C	1.255535	1.279011	0.247964
C131	C	0.822452	0.778976	-0.185233
C132	C	1.322452	1.278976	0.314767
C133	C	0.822431	0.724376	-0.185226
C134	C	1.322431	1.224376	0.314774
C135	C	0.788962	0.697093	-0.218623
C136	C	1.288962	1.197093	0.281377
C137	C	0.755514	0.724410	-0.252028
C138	C	1.255514	1.224410	0.247972
C139	C	0.688617	0.779042	-0.318847
C140	C	1.188617	1.279042	0.181153
C141	C	0.688603	0.724435	-0.318840
C142	C	1.188603	1.224435	0.181160
C143	C	0.722053	0.697118	-0.285432
C144	C	1.222053	1.197118	0.214568
C145	C	0.722024	0.642527	-0.285418
C146	C	1.222024	1.142527	0.214582
N147	N	0.755475	0.615206	-0.252016
N148	N	1.255475	1.115206	0.247984
C149	C	0.788944	0.642490	-0.218618
C150	C	1.288944	1.142490	0.281382
C151	C	0.722141	0.975602	-0.285457
C152	C	1.222141	1.475602	0.214543
C153	C	0.722155	1.030204	-0.285459
C154	C	1.222155	1.530204	0.214541
C155	C	0.789078	1.030167	-0.218656
C156	C	1.289078	1.530167	0.281344
C157	C	0.789061	0.975564	-0.218652
C158	C	1.289061	1.475564	0.281348
C159	C	0.755593	0.948282	-0.252055
C160	C	1.255593	1.448282	0.247945
C161	C	0.788897	0.527824	-0.218605
C162	C	1.288897	1.027824	0.281395
C163	C	0.788872	0.473219	-0.218599
C164	C	1.288872	0.973219	0.281401
C165	C	0.721951	0.473261	-0.285403
C166	C	1.221951	0.973261	0.214597
C167	C	0.721974	0.527862	-0.285408
C168	C	1.221974	1.027862	0.214592
C169	C	0.755452	0.555142	-0.252007
C170	C	1.255452	1.055142	0.247993
O171	O	0.693562	0.614260	-0.313793
O172	O	1.193562	1.114260	0.186207
O173	O	0.817396	0.614231	-0.190216
O174	O	1.317396	1.114231	0.309784
C175	C	0.789012	0.218432	-0.806886
C176	C	1.289012	0.718432	-0.306886
C177	C	0.789019	0.218417	-0.861491
C178	C	1.289019	0.718417	-0.361491
O179	O	0.817466	0.189967	-0.889747
O180	O	1.317466	0.689967	-0.389747
N181	N	0.755562	0.251844	-0.888783
N182	N	1.255562	0.751844	-0.388783
C183	C	0.722093	0.285283	-0.861468
C184	C	1.222093	0.785283	-0.361468
O185	O	0.693636	0.313713	-0.889695
O186	O	1.193636	0.813713	-0.389695
C187	C	0.722084	0.285294	-0.806864
C188	C	1.222084	0.785294	-0.306864
C189	C	0.755547	0.251870	-0.779575
C190	C	1.255547	0.751870	-0.279575
C191	C	0.822472	0.185009	-0.779597
C192	C	1.322472	0.685009	-0.279597
C193	C	0.822466	0.185025	-0.724997
C194	C	1.322466	0.685025	-0.224997
C195	C	0.789000	0.218462	-0.697685
C196	C	1.289000	0.718462	-0.197685
C197	C	0.755541	0.251885	-0.724974
C198	C	1.255541	0.751885	-0.224974
C199	C	0.688613	0.318731	-0.779550
C200	C	1.188613	0.818731	-0.279550
C201	C	0.688607	0.318739	-0.724943
C202	C	1.188607	0.818739	-0.224943
C203	C	0.722069	0.285314	-0.697654
C204	C	1.222069	0.785314	-0.197654
C205	C	0.722070	0.285338	-0.643063
C206	C	1.222070	0.785338	-0.143063
N207	N	0.755526	0.251912	-0.615771
N208	N	1.255526	0.751912	-0.115771
C209	C	0.788992	0.218474	-0.643082
C210	C	1.288992	0.718474	-0.143082
C211	C	0.722113	0.285256	-0.976138
C212	C	1.222113	0.785256	-0.476138
C213	C	0.722124	0.285247	-1.030741
C214	C	1.222124	0.785247	-0.530741
C215	C	0.789049	0.218381	-1.030760
C216	C	1.289049	0.718381	-0.530760
C217	C	0.789041	0.218392	-0.976157
C218	C	1.289041	0.718392	-0.476157
C219	C	0.755570	0.251829	-0.948846
C220	C	1.255570	0.751829	-0.448846
C221	C	0.788977	0.218509	-0.528417
C222	C	1.288977	0.718509	-0.028417
C223	C	0.788970	0.218529	-0.473811
C224	C	1.288970	0.718529	0.026189
C225	C	0.722043	0.285393	-0.473797
C226	C	1.222043	0.785393	0.026203
C227	C	0.722052	0.285375	-0.528397
C228	C	1.222052	0.785375	-0.028397
C229	C	0.755521	0.251929	-0.555706
C230	C	1.255521	0.751929	-0.055706
O231	O	0.693635	0.313773	-0.614771
O232	O	1.193635	0.813773	-0.114771
O233	O	0.817439	0.190044	-0.614847
O234	O	1.317439	0.690044	-0.114847
C235	C	0.755494	0.251951	-0.116170
C236	C	1.255494	0.751951	0.383830
C237	C	0.755588	0.251807	-0.058057
C238	C	1.255588	0.751807	0.441943
H239	H	0.556449	0.312723	-0.312530
H240	H	1.056449	0.812723	0.187470
O241	O	0.821515	0.186094	-0.554997
O242	O	1.321515	0.686094	-0.054997
C243	C	0.855277	0.215857	-0.586578
C244	C	1.355277	0.715857	-0.086578
H245	H	0.836807	0.255473	-0.594758
H246	H	1.336807	0.755473	-0.094758
H247	H	0.894013	0.221618	-0.565540
H248	H	1.394013	0.721618	-0.065540
C249	C	0.887465	0.138416	-0.628400
C250	C	1.387465	0.638416	-0.128400
C251	C	0.864778	0.187071	-0.638450
C252	C	1.364778	0.687071	-0.138450
H253	H	0.893328	0.120659	-0.660395
H254	H	1.393328	0.620659	-0.160395
H255	H	0.864721	0.118363	-0.607122
H256	H	1.364721	0.618363	-0.107122
H257	H	0.919743	0.143223	-0.610867
H258	H	1.419743	0.643223	-0.110867
H259	H	0.832498	0.182263	-0.655976
H260	H	1.332498	0.682263	-0.155976
H261	H	0.887517	0.207122	-0.659732
H262	H	1.387517	0.707122	-0.159732
O263	O	0.058449	0.186056	-0.186222
O264	O	0.558449	0.686056	0.313778
C265	C	0.089991	0.215771	-0.152385
C266	C	0.589991	0.715771	0.347615
H267	H	0.098165	0.255418	-0.170755
H268	H	0.598165	0.755418	0.329245
H269	H	0.068920	0.221465	-0.113634
H270	H	0.568920	0.721465	0.386366
C271	C	0.131824	0.138286	-0.120395
C272	C	0.631824	0.638286	0.379605
C273	C	0.141868	0.186980	-0.142958
C274	C	0.641868	0.686980	0.357042
H275	H	0.163824	0.120526	-0.114577
H276	H	0.663824	0.620526	0.385423
H277	H	0.110573	0.118266	-0.143189
H278	H	0.610573	0.618266	0.356811
H279	H	0.114265	0.143038	-0.088104
H280	H	0.614265	0.643038	0.411896
H281	H	0.159422	0.182228	-0.175251
H282	H	0.659422	0.682228	0.324749
H283	H	0.163124	0.206999	-0.120169
H284	H	0.663124	0.706999	0.379831
O285	O	0.309635	0.152537	-0.152829
O286	O	0.809635	0.652537	0.347171
C287	C	0.341175	0.182252	-0.118990
C288	C	0.841175	0.682252	0.381010
H289	H	0.349345	0.221902	-0.137356
H290	H	0.849345	0.721902	0.362644
H291	H	0.320106	0.187939	-0.080238
H292	H	0.820106	0.687939	0.419762
C293	C	0.383018	0.104768	-0.087009
C294	C	0.883018	0.604768	0.412991
C295	C	0.393056	0.153465	-0.109568
C296	C	0.893056	0.653465	0.390432
H297	H	0.415020	0.087011	-0.081195
H298	H	0.915020	0.587011	0.418805
H299	H	0.361768	0.084748	-0.109806
H300	H	0.861768	0.584748	0.390194
H301	H	0.365459	0.109515	-0.054718
H302	H	0.865459	0.609515	0.445282
H303	H	0.410608	0.148718	-0.141862
H304	H	0.910608	0.648718	0.358138
H305	H	0.414310	0.173484	-0.086777
H306	H	0.914310	0.673484	0.413223
H307	H	0.694857	0.312487	-0.953905
H308	H	1.194857	0.812487	-0.453905
H309	H	0.457387	0.191213	-0.191436
H310	H	0.957387	0.691213	0.308564
O311	O	0.855007	0.152598	-0.806181
O312	O	1.355007	0.652598	-0.306181
C313	C	0.888771	0.182361	-0.837760
C314	C	1.388771	0.682361	-0.337760
H315	H	0.870303	0.221978	-0.845938
H316	H	1.370303	0.721978	-0.345938
H317	H	0.927507	0.188119	-0.816720
H318	H	1.427507	0.688119	-0.316720
C319	C	0.920959	0.104920	-0.879583
C320	C	1.420959	0.604920	-0.379583
C321	C	0.898273	0.153577	-0.889632
C322	C	1.398273	0.653577	-0.389632
H323	H	0.926822	0.087165	-0.911580
H324	H	1.426822	0.587165	-0.411580
H325	H	0.898213	0.084868	-0.858307
H326	H	1.398213	0.584868	-0.358307
H327	H	0.953236	0.109726	-0.862049
H328	H	1.453236	0.609726	-0.362049
H329	H	0.865994	0.148771	-0.907160
H330	H	1.365994	0.648771	-0.407160
H331	H	0.921014	0.173628	-0.910912
H332	H	1.421014	0.673628	-0.410912
H333	H	0.849714	0.157806	-0.702783
H334	H	1.349714	0.657806	-0.202783
H335	H	0.206233	0.157734	-0.158106
H336	H	0.706233	0.657734	0.341894
H337	H	0.816333	1.052391	-0.191464
H338	H	1.316333	1.552391	0.308536
O339	O	0.689641	1.056657	-0.317957
O340	O	1.189641	1.556657	0.182043
C341	C	0.660089	1.020860	-0.347420
C342	C	1.160089	1.520860	0.152580
H343	H	0.681491	0.981917	-0.349245
H344	H	1.181491	1.481917	0.150755
H345	H	0.620391	1.015099	-0.328229
H346	H	1.120391	1.515099	0.171771
C347	C	0.626233	1.089977	-0.400822
C348	C	1.126233	1.589977	0.099178
C349	C	0.652522	1.042147	-0.403067
C350	C	1.152522	1.542147	0.096933
H351	H	0.621563	1.103108	-0.435146
H352	H	1.121563	1.603108	0.064854
H353	H	0.646141	1.114094	-0.380971
H354	H	1.146141	1.614094	0.119029
H355	H	0.593155	1.085169	-0.384827
H356	H	1.093155	1.585169	0.115173
H357	H	0.685602	1.046957	-0.419055
H358	H	1.185602	1.546957	0.080945
H359	H	0.632619	1.018031	-0.422921
H360	H	1.132619	1.518031	0.077079
O361	O	-0.049306	0.185979	-0.186328
O362	O	0.450694	0.685979	0.313672
C363	C	-0.080853	0.152243	-0.216151
C364	C	0.419147	0.652243	0.283849
H365	H	-0.089022	0.170734	-0.255746
H366	H	0.410978	0.670734	0.244254
H367	H	-0.059790	0.113501	-0.221954
H368	H	0.440210	0.613501	0.278046
C369	C	-0.122696	0.120041	-0.138772
C370	C	0.377304	0.620041	0.361228
C371	C	-0.132734	0.142753	-0.187402
C372	C	0.367266	0.642753	0.312598
H373	H	-0.154698	0.114184	-0.121038
H374	H	0.345302	0.614184	0.378962
H375	H	-0.101441	0.142768	-0.118679
H376	H	0.398559	0.642768	0.381321
H377	H	-0.105143	0.087758	-0.143615
H378	H	0.394857	0.587758	0.356385
H379	H	-0.150281	0.175038	-0.182558
H380	H	0.349719	0.675038	0.317442
H381	H	-0.153993	0.120031	-0.207493
H382	H	0.346007	0.620031	0.292507
H383	H	0.661376	0.801275	-0.346049
H384	H	1.161376	1.301275	0.153951
H385	H	0.849709	0.801185	-0.158037
H386	H	1.349709	1.301185	0.341963
O387	O	0.689502	0.317864	-0.554828
O388	O	1.189502	0.817864	-0.054828
C389	C	0.659976	0.347392	-0.519011
C390	C	1.159976	0.847392	-0.019011
H391	H	0.658180	0.325988	-0.480087
H392	H	1.158180	0.825988	0.019913
H393	H	0.679093	0.387105	-0.513210
H394	H	1.179093	0.887105	-0.013210
C395	C	0.606530	0.381202	-0.588107
C396	C	1.106530	0.881202	-0.088107
C397	C	0.604321	0.354911	-0.540302
C398	C	1.104321	0.854911	-0.040302
H399	H	0.572200	0.385842	-0.601241
H400	H	1.072200	0.885842	-0.101241
H401	H	0.626423	0.361310	-0.612239
H402	H	1.126423	0.861310	-0.112239
H403	H	0.622463	0.414293	-0.583267
H404	H	1.122463	0.914293	-0.083267
H405	H	0.588394	0.321817	-0.545145
H406	H	1.088394	0.821817	-0.045145
H407	H	0.584424	0.374797	-0.516172
H408	H	1.084424	0.874797	-0.016172
H409	H	0.661350	0.702225	-0.346042
H410	H	1.161350	1.202225	0.153958
H411	H	0.556454	0.191211	-0.191422
H412	H	1.056454	0.691211	0.308578
O413	O	0.821605	0.949111	-0.186185
O414	O	1.321605	1.449111	0.313815
C415	C	0.851136	0.984907	-0.156699
C416	C	1.351136	1.484907	0.343301
H417	H	0.852940	1.023819	-0.178123
H418	H	1.352940	1.523819	0.321877
H419	H	0.832016	0.990749	-0.116971
H420	H	1.332016	1.490749	0.383029
C421	C	0.904565	0.915764	-0.122906
C422	C	1.404565	1.415764	0.377094
C423	C	0.906786	0.963554	-0.149220
C424	C	1.406786	1.463554	0.350780
H425	H	0.938892	0.902592	-0.118290
H426	H	1.438892	1.402592	0.381710
H427	H	0.884669	0.891646	-0.142769
H428	H	1.384669	1.391646	0.357231
H429	H	0.888630	0.920638	-0.089802
H430	H	1.388630	1.420638	0.410198
H431	H	0.922715	0.958678	-0.182326
H432	H	1.422715	1.458678	0.317674
H433	H	0.926686	0.987670	-0.129362
H434	H	1.426686	1.487670	0.370638
O435	O	-0.049331	0.317976	-0.317851
O436	O	0.450669	0.817976	0.182149
C437	C	-0.103378	0.310804	-0.310688
C438	C	0.396622	0.810804	0.189312
H439	H	-0.110817	0.270430	-0.293635
H440	H	0.389183	0.770430	0.206365
H441	H	-0.118906	0.341776	-0.282792
H442	H	0.381094	0.841776	0.217208
C443	C	-0.122255	0.365256	-0.384528
C444	C	0.377745	0.865256	0.115472
C445	C	-0.131392	0.315666	-0.363586
C446	C	0.368608	0.815666	0.136414
H447	H	-0.139536	0.368257	-0.417157
H448	H	0.360464	0.868257	0.082843
H449	H	-0.085842	0.370090	-0.389353
H450	H	0.414158	0.870090	0.110647
H451	H	-0.135194	0.391061	-0.361276
H452	H	0.364806	0.891061	0.138724
H453	H	-0.118447	0.289862	-0.386835
H454	H	0.381553	0.789862	0.113165
H455	H	-0.167803	0.310828	-0.358767
H456	H	0.332197	0.810828	0.141233
H457	H	0.816111	0.450979	-0.191392
H458	H	1.316111	0.950979	0.308608
H459	H	0.457399	0.312726	-0.312556
H460	H	0.957399	0.812726	0.187444
H461	H	0.816159	0.550030	-0.191408
H462	H	1.316159	1.050030	0.308592
O463	O	0.689573	0.317737	-1.057165
O464	O	1.189573	0.817737	-0.557165
C465	C	0.660048	0.347261	-1.021344
C466	C	1.160048	0.847261	-0.521344
H467	H	0.658252	0.325852	-0.982423
H468	H	1.158252	0.825852	-0.482423
H469	H	0.679165	0.386974	-1.015538
H470	H	1.179165	0.886974	-0.515538
C471	C	0.606602	0.381079	-1.090436
C472	C	1.106602	0.881079	-0.590436
C473	C	0.604393	0.354783	-1.042634
C474	C	1.104393	0.854783	-0.542634
H475	H	0.572272	0.385722	-1.103569
H476	H	1.072272	0.885722	-0.603569
H477	H	0.626495	0.361191	-1.114570
H478	H	1.126495	0.861191	-0.614570
H479	H	0.622535	0.414171	-1.085591
H480	H	1.122535	0.914171	-0.585591
H481	H	0.588466	0.321690	-1.047480
H482	H	1.088466	0.821690	-0.547480
H483	H	0.584496	0.374667	-1.018501
H484	H	1.084496	0.874667	-0.518501
O485	O	0.854979	0.697924	-0.152762
O486	O	1.354979	1.197924	0.347238
C487	C	0.884513	0.733723	-0.123283
C488	C	1.384513	1.233723	0.376717
H489	H	0.886312	0.772634	-0.144707
H490	H	1.386312	1.272634	0.355293
H491	H	0.865400	0.739565	-0.083552
H492	H	1.365400	1.239565	0.416448
C493	C	0.937952	0.664583	-0.089496
C494	C	1.437952	1.164583	0.410504
C495	C	0.940165	0.712373	-0.115813
C496	C	1.440165	1.212373	0.384187
H497	H	0.972280	0.651413	-0.084886
H498	H	1.472280	1.151413	0.415114
H499	H	0.918054	0.640464	-0.109355
H500	H	1.418054	1.140464	0.390645
H501	H	0.922022	0.669458	-0.056390
H502	H	1.422022	1.169458	0.443610
H503	H	0.956089	0.707497	-0.148921
H504	H	1.456089	1.207497	0.351079
H505	H	0.960068	0.736491	-0.095959
H506	H	1.460068	1.236491	0.404041
H507	H	0.206227	0.346229	-0.345967
H508	H	0.706227	0.846229	0.154033
O509	O	0.656054	0.351214	-0.805969
O510	O	1.156054	0.851214	-0.305969
C511	C	0.626526	0.380731	-0.770144
C512	C	1.126526	0.880731	-0.270144
H513	H	0.624738	0.359320	-0.731224
H514	H	1.124738	0.859320	-0.231224
H515	H	0.645637	0.420446	-0.764337
H516	H	1.145637	0.920446	-0.264337
C517	C	0.573069	0.414543	-0.839230
C518	C	1.073069	0.914543	-0.339230
C519	C	0.570868	0.388244	-0.791429
C520	C	1.070868	0.888244	-0.291429
H521	H	0.538737	0.419180	-0.852360
H522	H	1.038737	0.919180	-0.352360
H523	H	0.592963	0.394659	-0.863367
H524	H	1.092963	0.894659	-0.363367
H525	H	0.588996	0.447637	-0.834385
H526	H	1.088996	0.947637	-0.334385
H527	H	0.554947	0.355148	-0.796276
H528	H	1.054947	0.855148	-0.296276
H529	H	0.550970	0.408123	-0.767294
H530	H	1.050970	0.908123	-0.267294
H531	H	0.694883	0.953392	-0.312656
H532	H	1.194883	1.453392	0.187344
H533	H	0.694738	0.550105	-0.312613
H534	H	1.194738	1.050105	0.187387
H535	H	0.694699	0.451039	-0.312594
H536	H	1.194699	0.951039	0.187406
H537	H	0.816221	0.191310	-0.451595
H538	H	1.316221	0.691310	0.048405
H539	H	0.694798	0.312619	-0.451550
H540	H	1.194798	0.812619	0.048450
H541	H	0.816288	0.191174	-0.953941
H542	H	1.316288	0.691174	-0.453941
H543	H	0.816298	0.191153	-1.053007
H544	H	1.316298	0.691153	-0.553007
H545	H	0.305272	0.346225	-0.345950
H546	H	0.805272	0.846225	0.154050
H547	H	0.054103	0.312760	-0.312609
H548	H	0.554103	0.812760	0.187391
H549	H	0.661345	0.345963	-0.702710
H550	H	1.161345	0.845963	-0.202710
