data_functionalizedCrystal
_audit_creation_method	'MofGen! by Chris Wilmer'
_symmetry_space_group_name_H-M	'P1'
_symmetry_Int_Tables_number	1
_symmetry_cell_setting	triclinic
loop_
_symmetry_equiv_pos_as_xyz
  x,y,z
_cell_length_a	19.188930
_cell_length_b	14.853567
_cell_length_c	13.930277
_cell_angle_alpha	90.004245
_cell_angle_beta	89.990320
_cell_angle_gamma	96.610144
loop_
_atom_site_label
_atom_site_type_symbol
_atom_site_fract_x
_atom_site_fract_y
_atom_site_fract_z
O1	O	0.091155	-1.195862	-0.079776
O2	O	0.591155	-0.695862	0.420224
O3	O	0.102014	-0.933342	-0.079794
O4	O	0.602014	-0.433342	0.420206
O5	O	-0.005046	-1.072177	-0.079766
O6	O	0.494954	-0.572177	0.420234
O7	O	0.198215	-1.057026	-0.079804
O8	O	0.698215	-0.557026	0.420196
O9	O	-0.005048	-1.072158	0.079896
O10	O	0.494952	-0.572158	0.579896
O11	O	0.102012	-0.933322	0.079868
O12	O	0.602012	-0.433322	0.579868
O13	O	0.091153	-1.195842	0.079886
O14	O	0.591153	-0.695842	0.579886
Zn15	Zn	0.096582	-1.064579	0.105227
Zn16	Zn	0.596582	-0.564579	0.605227
Zn17	Zn	0.096585	-1.064605	-0.105135
Zn18	Zn	0.596585	-0.564605	0.394865
O19	O	0.198213	-1.057007	0.079858
O20	O	0.698213	-0.557007	0.579858
C21	C	0.101521	-0.899746	0.000035
C22	C	0.601521	-0.399746	0.500035
C23	C	0.100046	-0.799671	0.000029
C24	C	0.600046	-0.299671	0.500029
C25	C	-0.031060	-1.071677	0.000068
C26	C	0.468940	-0.571677	0.500068
C27	C	-0.108569	-1.070204	0.000076
C28	C	0.391431	-0.570204	0.500076
N29	N	0.096579	-1.064569	0.248793
N30	N	0.596579	-0.564569	0.748793
C31	C	-0.153221	-1.151668	0.000086
C32	C	0.346779	-0.651668	0.500086
C33	C	-0.226050	-1.150285	0.000071
C34	C	0.273950	-0.650285	0.500071
C35	C	-0.254223	-1.067432	0.000065
C36	C	0.245777	-0.567432	0.500065
C37	C	-0.209561	-0.985957	0.000049
C38	C	0.290439	-0.485957	0.500049
C39	C	-0.136734	-0.987343	0.000055
C40	C	0.363266	-0.487343	0.500055
N41	N	-0.362440	-1.004095	0.054396
N42	N	0.137560	-0.504095	0.554396
N43	N	-0.431623	-1.002783	0.054393
N44	N	0.068377	-0.502783	0.554393
C45	C	-0.473645	-1.063251	0.000045
C46	C	0.026355	-0.563251	0.500045
N47	N	-0.443873	-1.125093	-0.054287
N48	N	0.056127	-0.625093	0.445713
N49	N	-0.374684	-1.126407	-0.054279
N50	N	0.125316	-0.626407	0.445721
C51	C	-0.333190	-1.065920	0.000058
C52	C	0.166810	-0.565920	0.500058
C53	C	-0.597267	-1.143220	0.000037
C54	C	-0.097267	-0.643220	0.500037
C55	C	-0.670096	-1.141833	0.000015
C56	C	-0.170096	-0.641833	0.500015
C57	C	-0.653606	-0.977503	0.000003
C58	C	-0.153606	-0.477503	0.500003
C59	C	-0.580778	-0.978893	0.000015
C60	C	-0.080778	-0.478893	0.500015
C61	C	-0.552613	-1.061754	0.000036
C62	C	-0.052613	-0.561754	0.500036
C63	C	0.224226	-1.057507	0.000022
C64	C	0.724226	-0.557507	0.500022
C65	C	0.301736	-1.058980	0.000008
C66	C	0.801736	-0.558980	0.500008
C67	C	0.091646	-1.229438	0.000055
C68	C	0.591646	-0.729438	0.500055
C69	C	0.093120	-1.329513	0.000055
C70	C	0.593120	-0.829513	0.500055
C71	C	0.030218	-0.387525	0.000064
C72	C	0.530218	0.112475	0.500064
C73	C	0.157407	-0.365537	0.000039
C74	C	0.657407	0.134463	0.500039
C75	C	0.158794	-0.459563	0.000036
C76	C	0.658794	0.040437	0.500036
C77	C	0.095891	-0.517574	0.000045
C78	C	0.595891	-0.017574	0.500045
C79	C	0.031602	-0.481560	0.000058
C80	C	0.531602	0.018440	0.500058
C81	C	0.223081	-0.495585	0.000013
C82	C	0.723081	0.004415	0.500013
C83	C	0.224470	-0.589616	0.000009
C84	C	0.724470	-0.089616	0.500009
C85	C	0.161567	-0.647629	0.000025
C86	C	0.661567	-0.147629	0.500025
C87	C	0.097276	-0.611610	0.000039
C88	C	0.597276	-0.111610	0.500039
C89	C	0.034373	-0.669621	0.000048
C90	C	0.534373	-0.169621	0.500048
C91	C	-0.029919	-0.633603	0.000069
C92	C	0.470081	-0.133603	0.500069
C93	C	-0.031301	-0.539574	0.000074
C94	C	0.468699	-0.039574	0.500074
C95	C	0.162949	-0.741659	0.000020
C96	C	0.662949	-0.241659	0.500020
C97	C	0.035757	-0.763656	0.000042
C98	C	0.535757	-0.263656	0.500042
N99	N	0.096582	-1.064623	-0.248701
N100	N	0.596582	-0.564623	0.251299
C101	C	0.143972	-1.003126	0.701050
C102	C	0.643972	-0.503126	1.201050
C103	C	0.049192	-1.126108	0.701044
C104	C	0.549192	-0.626108	1.201044
C105	C	0.049190	-1.126098	0.600548
C106	C	0.549190	-0.626098	1.100548
C107	C	0.096580	-1.064601	0.550299
C108	C	0.596580	-0.564601	1.050299
C109	C	0.143973	-1.003115	0.600545
C110	C	0.643973	-0.503115	1.100545
C111	C	0.001803	-1.187588	0.550295
C112	C	0.501803	-0.687588	1.050295
C113	C	0.001799	-1.187581	0.449793
C114	C	0.501799	-0.687581	0.949793
C115	C	0.049187	-1.126079	0.399541
C116	C	0.549187	-0.626079	0.899541
C117	C	0.096581	-1.064590	0.449794
C118	C	0.596581	-0.564590	0.949794
C119	C	0.143971	-1.003094	0.399544
C120	C	0.643971	-0.503094	0.899544
C121	C	0.191363	-0.941600	0.449794
C122	C	0.691363	-0.441600	0.949794
C123	C	0.191361	-0.941614	0.550293
C124	C	0.691361	-0.441614	1.050293
C125	C	0.049189	-1.126065	0.299043
C126	C	0.549189	-0.626065	0.799043
C127	C	0.143972	-1.003083	0.299039
C128	C	0.643972	-0.503083	0.799039
H129	H	-0.130295	-1.219140	0.000100
H130	H	0.369705	-0.719140	0.500100
H131	H	-0.574334	-1.210691	0.000050
H132	H	-0.074334	-0.710691	0.500050
Cl133	Cl	-0.112118	-0.494288	0.000094
Cl134	Cl	0.387882	0.005712	0.500094
Cl135	Cl	0.250936	-0.864316	0.613467
Cl136	Cl	0.750936	-0.364316	1.113467
H137	H	-0.676543	-0.910043	-0.000007
H138	H	-0.176543	-0.410043	0.499993
Cl139	Cl	0.203545	-0.925819	0.764216
Cl140	Cl	0.703545	-0.425819	1.264216
Cl141	Cl	0.243766	-0.786936	-0.000013
Cl142	Cl	0.743766	-0.286936	0.499987
H143	H	-0.544421	-0.912556	0.000012
H144	H	-0.044421	-0.412556	0.500012
Cl145	Cl	-0.043325	-0.836578	0.000061
Cl146	Cl	0.456675	-0.336578	0.500061
Cl147	Cl	-0.282195	-1.252705	0.000083
Cl148	Cl	0.217805	-0.752705	0.500083
H149	H	-0.100377	-0.921003	0.000047
H150	H	0.399623	-0.421003	0.500047
Cl151	Cl	-0.010380	-1.203371	0.235877
Cl152	Cl	0.489620	-0.703371	0.735877
H153	H	-0.232504	-0.918498	0.000042
H154	H	0.267496	-0.418498	0.500042
H155	H	-0.081134	-0.680849	0.000070
H156	H	0.418866	-0.180849	0.500070
Cl157	Cl	-0.050602	-0.342248	0.000095
Cl158	Cl	0.449398	0.157752	0.500095
Cl159	Cl	-0.726233	-1.244255	0.000022
Cl160	Cl	-0.226233	-0.744255	0.500022
H161	H	0.010611	-1.176181	0.741960
H162	H	0.510611	-0.676181	1.241960
H163	H	-0.036790	-1.237651	0.408885
H164	H	0.463210	-0.737651	0.908885
Cl165	Cl	0.203549	-0.925763	0.235876
Cl166	Cl	0.703549	-0.425763	0.735876
H167	H	0.208620	-0.318299	0.000023
H168	H	0.708620	0.181701	0.500023
Cl169	Cl	0.305293	-0.634887	-0.000014
Cl170	Cl	0.805293	-0.134887	0.499986
Cl171	Cl	0.302153	-0.422653	-0.000015
Cl172	Cl	0.802153	0.077347	0.499985
Cl173	Cl	-0.057767	-1.264901	0.613463
Cl174	Cl	0.442233	-0.764901	1.113463
Cl175	Cl	0.250942	-0.864298	0.386613
Cl176	Cl	0.750942	-0.364298	0.886613
