data_functionalizedCrystal
_audit_creation_method	'MofGen! by Chris Wilmer'
_symmetry_space_group_name_H-M	'P1'
_symmetry_Int_Tables_number	1
_symmetry_cell_setting	triclinic
loop_
_symmetry_equiv_pos_as_xyz
  x,y,z
_cell_length_a	19.188933
_cell_length_b	12.837942
_cell_length_c	11.295483
_cell_angle_alpha	85.469583
_cell_angle_beta	85.909976
_cell_angle_gamma	91.012745
loop_
_atom_site_label
_atom_site_type_symbol
_atom_site_fract_x
_atom_site_fract_y
_atom_site_fract_z
O1	O	0.939254	-0.122391	-0.098984
O2	O	0.737138	-0.139805	-0.098995
O3	O	0.833714	0.019784	-0.098983
O4	O	0.842678	-0.281980	-0.098997
O5	O	0.825230	0.005789	0.099067
O6	O	0.728654	-0.153800	0.099054
O7	O	0.930770	-0.136386	0.099065
Cu8	Cu	0.828937	-0.146371	0.117143
Cu9	Cu	0.838970	-0.129820	-0.117073
O10	O	0.834194	-0.295975	0.099053
C11	C	0.706846	-0.146238	0.000028
C12	C	0.629226	-0.144544	0.000024
C13	C	0.079765	-0.124826	-0.107919
C14	C	0.152698	-0.126411	-0.107924
C15	C	0.184545	-0.134838	0.000032
C16	C	0.143454	-0.141653	0.108002
C17	C	0.070522	-0.140057	0.108003
N18	N	0.294340	-0.201992	0.080387
N19	N	0.363622	-0.203509	0.080378
C20	C	0.404284	-0.139644	0.000034
N21	N	0.373046	-0.074215	-0.080318
N22	N	0.303758	-0.072702	-0.080313
C23	C	0.263627	-0.136568	0.000043
C24	C	0.524449	-0.134540	-0.107933
C25	C	0.597384	-0.136119	-0.107933
C26	C	0.588137	-0.151371	0.107995
C27	C	0.515204	-0.149782	0.107992
C28	C	0.483365	-0.141371	0.000025
C29	C	0.826444	0.051393	0.000041
C30	C	0.817413	0.166430	0.000039
C31	C	0.961062	-0.129953	0.000039
C32	C	1.038682	-0.131646	0.000036
C33	C	0.841464	-0.327584	0.000026
C34	C	0.850495	-0.442620	0.000021
N35	N	0.821885	-0.158012	0.281879
C36	C	0.925982	0.407881	0.000020
C37	C	0.917500	0.515968	0.000018
C38	C	0.791968	0.490695	0.000023
C39	C	0.800450	0.382608	0.000026
C40	C	0.867459	0.341205	0.000026
C41	C	0.875940	0.233114	0.000037
C42	C	0.750409	0.207844	0.000034
C43	C	0.741927	0.315932	0.000031
N44	N	0.846027	-0.118171	-0.281809
C45	C	0.896786	-0.034317	0.531178
C46	C	0.891462	-0.043121	0.655841
C47	C	0.805911	-0.184419	0.655870
C48	C	0.811235	-0.175615	0.531207
C49	C	0.856675	-0.100562	0.468865
C50	C	0.862001	-0.091764	0.344200
C51	C	0.776447	-0.233056	0.344231
C52	C	0.771123	-0.241860	0.468894
H53	H	0.037072	-0.145615	0.195916
H54	H	0.186154	-0.120863	-0.195837
C55	C	0.718266	0.536249	-0.000001
H56	H	0.684624	0.481061	-0.000010
H57	H	0.709386	0.573024	0.069052
H58	H	0.715317	0.582756	-0.069085
H59	H	0.965155	0.570253	0.000009
H60	H	0.687371	0.349658	0.000027
C61	C	0.755931	-0.266965	0.724459
H62	H	0.758510	-0.262719	0.807628
H63	H	0.709471	-0.254446	0.704044
H64	H	0.768990	-0.334663	0.704034
H65	H	0.053846	-0.117973	-0.195835
C66	C	0.999685	0.362332	0.000030
H67	H	1.033326	0.417524	0.000023
H68	H	1.002643	0.315814	0.069095
H69	H	1.008563	0.325572	-0.069043
H70	H	0.734125	-0.302964	0.519667
H71	H	0.702755	0.153543	0.000048
H72	H	0.498524	-0.127688	-0.195847
H73	H	0.630833	-0.130557	-0.195847
C74	C	0.623157	-0.160638	0.226749
H75	H	0.588240	-0.164469	0.291046
H76	H	0.650112	-0.221994	0.231239
H77	H	0.652718	-0.101150	0.231235
H78	H	0.169388	-0.148512	0.195901
C79	C	0.935587	0.029745	0.724381
H80	H	0.963413	0.075697	0.669394
H81	H	0.905532	0.069355	0.773024
H82	H	0.965050	-0.010865	0.772999
C83	C	0.470011	-0.157301	0.226744
H84	H	0.499421	-0.162556	0.291041
H85	H	0.442672	-0.096581	0.231237
H86	H	0.440065	-0.217424	0.231228
H87	H	0.899002	-0.030655	0.293443
C88	C	0.946768	0.048231	0.462599
H89	H	0.969894	0.086426	0.517566
H90	H	0.980378	0.014493	0.413955
H91	H	0.920862	0.094716	0.413980
C92	C	0.949645	0.187571	0.000033
H93	H	0.983284	0.242767	0.000017
H94	H	0.952611	0.141055	0.069097
H95	H	0.958518	0.150810	-0.069040
C96	C	0.732331	-0.305940	0.275685
H97	H	0.742009	-0.289950	0.192511
H98	H	0.743648	-0.376513	0.296124
H99	H	0.684120	-0.296309	0.296121
