data_functionalizedCrystal
_audit_creation_method	'MofGen! by Chris Wilmer'
_symmetry_space_group_name_H-M	'P1'
_symmetry_Int_Tables_number	1
_symmetry_cell_setting	triclinic
loop_
_symmetry_equiv_pos_as_xyz
  x,y,z
_cell_length_a	29.839134
_cell_length_b	17.077402
_cell_length_c	17.077396
_cell_angle_alpha	89.970216
_cell_angle_beta	89.970675
_cell_angle_gamma	90.017744
loop_
_atom_site_label
_atom_site_type_symbol
_atom_site_fract_x
_atom_site_fract_y
_atom_site_fract_z
Zn1	Zn	0.686810	-0.312616	-0.444041
Zn2	Zn	1.020143	0.020718	-0.110708
Zn3	Zn	1.353477	0.354051	0.222625
Zn4	Zn	0.686757	-0.443891	-0.312772
Zn5	Zn	1.020090	-0.110557	0.020561
Zn6	Zn	1.353424	0.222776	0.353894
Zn7	Zn	0.611683	-0.312631	-0.312767
Zn8	Zn	0.945017	0.020702	0.020567
Zn9	Zn	1.278350	0.354036	0.353900
Zn10	Zn	0.611665	-0.443832	-0.443973
Zn11	Zn	0.944998	-0.110498	-0.110640
Zn12	Zn	1.278332	0.222835	0.222693
O13	O	0.649229	-0.378242	-0.378388
O14	O	0.982562	-0.044909	-0.045055
O15	O	1.315895	0.288424	0.288278
O16	O	0.749670	-0.330048	-0.426659
O17	O	1.083003	0.003286	-0.093326
O18	O	1.416337	0.336619	0.240008
O19	O	0.676784	-0.426510	-0.202925
O20	O	1.010117	-0.093176	0.130409
O21	O	1.343450	0.240157	0.463742
O22	O	0.621679	-0.202782	-0.330207
O23	O	0.955012	0.130551	0.003127
O24	O	1.288346	0.463885	0.336460
O25	O	0.749631	-0.426495	-0.330216
O26	O	1.082964	-0.093162	0.003117
O27	O	1.416298	0.240172	0.336451
O28	O	0.676874	-0.202771	-0.426654
O29	O	1.010208	0.130563	-0.093320
O30	O	1.343541	0.463896	0.240013
O31	O	0.621627	-0.330074	-0.202921
O32	O	0.954961	0.003260	0.130413
O33	O	1.288294	0.336593	0.463746
O34	O	0.548814	-0.330017	-0.330141
O35	O	0.882147	0.003317	0.003192
O36	O	1.215480	0.336650	0.336526
O37	O	0.621648	-0.426395	-0.553829
O38	O	0.954981	-0.093061	-0.220496
O39	O	1.288314	0.240272	0.112837
O40	O	0.548800	-0.426409	-0.426538
O41	O	0.882134	-0.093076	-0.093204
O42	O	1.215467	0.240257	0.240129
O43	O	0.676857	-0.329991	-0.553879
O44	O	1.010190	0.003343	-0.220546
O45	O	1.343523	0.336676	0.112787
O46	O	0.676766	-0.553730	-0.330150
O47	O	1.010099	-0.220396	0.003183
O48	O	1.343433	0.112937	0.336516
O49	O	0.621596	-0.553686	-0.426543
O50	O	0.954929	-0.220353	-0.093210
O51	O	1.288263	0.112980	0.240123
C52	C	0.649185	-0.582190	-0.378357
C53	C	0.982519	-0.248857	-0.045024
C54	C	1.315852	0.084477	0.288310
C55	C	0.649208	-0.669440	-0.378370
C56	C	0.982541	-0.336107	-0.045037
C57	C	1.315875	-0.002773	0.288297
C58	C	0.532506	-0.378209	-0.378332
C59	C	0.865840	-0.044876	-0.044998
C60	C	1.199173	0.288458	0.288335
C61	C	0.482572	-0.378214	-0.378326
C62	C	0.815905	-0.044880	-0.044993
C63	C	1.149238	0.288453	0.288340
C64	C	0.677964	-0.710426	-0.328232
C65	C	1.011298	-0.377093	0.005101
C66	C	1.344631	-0.043760	0.338435
C67	C	0.677986	-0.792407	-0.328252
C68	C	1.011320	-0.459074	0.005081
C69	C	1.344653	-0.125740	0.338415
C70	C	0.649249	-0.833399	-0.378407
C71	C	0.982583	-0.500066	-0.045073
C72	C	1.315916	-0.166733	0.288260
C73	C	0.620492	-0.792407	-0.428550
C74	C	0.953825	-0.459074	-0.095217
C75	C	1.287158	-0.125740	0.238117
C76	C	0.620472	-0.710428	-0.428533
C77	C	0.953806	-0.377095	-0.095200
C78	C	1.287139	-0.043761	0.238133
C79	C	0.620533	-0.963277	-0.428580
C80	C	0.953867	-0.629944	-0.095247
C81	C	1.287200	-0.296610	0.238087
C82	C	0.620552	-1.045261	-0.428596
C83	C	0.953885	-0.711928	-0.095262
C84	C	1.287219	-0.378595	0.238071
C85	C	0.678047	-1.045256	-0.328299
C86	C	1.011381	-0.711923	0.005035
C87	C	1.344714	-0.378589	0.338368
C88	C	0.678028	-0.963277	-0.328282
C89	C	1.011361	-0.629944	0.005051
C90	C	1.344694	-0.296610	0.338385
C91	C	0.649270	-0.922290	-0.378425
C92	C	0.982603	-0.588957	-0.045091
C93	C	1.315936	-0.255624	0.288242
C94	C	0.172931	-0.428508	-0.428521
C95	C	0.506264	-0.095175	-0.095187
C96	C	0.839598	0.238159	0.238146
C97	C	-0.014742	-0.428530	-0.428556
C98	C	0.318591	-0.095197	-0.095222
C99	C	0.651924	0.238136	0.238111
O100	O	-0.039005	-0.471255	-0.471199
O101	O	0.294328	-0.137922	-0.137866
O102	O	0.627662	0.195411	0.195467
N103	N	-0.038213	-0.378271	-0.378448
N104	N	0.295120	-0.044938	-0.045114
N105	N	0.628453	0.288396	0.288219
C106	C	-0.014763	-0.327999	-0.328331
C107	C	0.318570	0.005334	0.005003
C108	C	0.651903	0.338668	0.338336
O109	O	-0.039033	-0.285245	-0.285717
O110	O	0.294300	0.048088	0.047616
O111	O	0.627634	0.381421	0.380950
C112	C	0.172909	-0.327974	-0.328300
C113	C	0.506242	0.005360	0.005033
C114	C	0.839576	0.338693	0.338366
C115	C	0.196378	-0.378242	-0.378406
C116	C	0.529711	-0.044908	-0.045073
C117	C	0.863044	0.288425	0.288260
C118	C	0.196400	-0.478771	-0.478623
C119	C	0.529733	-0.145438	-0.145290
C120	C	0.863066	0.187895	0.188043
C121	C	0.243315	-0.478768	-0.478611
C122	C	0.576648	-0.145435	-0.145278
C123	C	0.909982	0.187898	0.188056
C124	C	0.266762	-0.428502	-0.428496
C125	C	0.600095	-0.095169	-0.095163
C126	C	0.933428	0.238165	0.238170
C127	C	0.243293	-0.378239	-0.378394
C128	C	0.576626	-0.044905	-0.045061
C129	C	0.909960	0.288428	0.288273
C130	C	0.196358	-0.277698	-0.278188
C131	C	0.529691	0.055635	0.055145
C132	C	0.863025	0.388968	0.388479
C133	C	0.243279	-0.277695	-0.278186
C134	C	0.576612	0.055638	0.055147
C135	C	0.909946	0.388972	0.388480
C136	C	0.266748	-0.327963	-0.328292
C137	C	0.600081	0.005370	0.005041
C138	C	0.933414	0.338704	0.338374
C139	C	0.313655	-0.327969	-0.328267
C140	C	0.646989	0.005364	0.005066
C141	C	0.980322	0.338697	0.338400
N142	N	0.337126	-0.378228	-0.378375
N143	N	0.670460	-0.044895	-0.045042
N144	N	1.003793	0.288438	0.288291
C145	C	0.313680	-0.428495	-0.428490
C146	C	0.647013	-0.095161	-0.095157
C147	C	0.980346	0.238172	0.238177
C148	C	-0.113294	-0.328017	-0.328349
C149	C	0.220039	0.005316	0.004984
C150	C	0.553373	0.338650	0.338318
C151	C	-0.160212	-0.328024	-0.328356
C152	C	0.173122	0.005309	0.004978
C153	C	0.506455	0.338642	0.338311
C154	C	-0.160187	-0.428555	-0.428582
C155	C	0.173146	-0.095221	-0.095248
C156	C	0.506479	0.238112	0.238085
C157	C	-0.113269	-0.428551	-0.428571
C158	C	0.220065	-0.095217	-0.095237
C159	C	0.553398	0.238116	0.238096
C160	C	-0.089823	-0.378276	-0.378457
C161	C	0.243511	-0.044943	-0.045124
C162	C	0.576844	0.288390	0.288209
C163	C	0.412205	-0.428485	-0.428460
C164	C	0.745539	-0.095152	-0.095127
C165	C	1.078872	0.238181	0.238207
C166	C	0.459125	-0.428480	-0.428441
C167	C	0.792458	-0.095147	-0.095108
C168	C	1.125792	0.238187	0.238226
C169	C	0.459097	-0.327947	-0.328218
C170	C	0.792430	0.005386	0.005115
C171	C	1.125763	0.338720	0.338449
C172	C	0.412181	-0.327955	-0.328234
C173	C	0.745514	0.005378	0.005100
C174	C	1.078848	0.338712	0.338433
C175	C	0.388737	-0.378227	-0.378361
C176	C	0.722070	-0.044893	-0.045028
C177	C	1.055403	0.288440	0.288306
O178	O	0.337947	-0.285260	-0.285652
O179	O	0.671280	0.048073	0.047681
O180	O	1.004614	0.381406	0.381015
O181	O	0.337958	-0.471230	-0.471109
O182	O	0.671291	-0.137897	-0.137776
O183	O	1.004624	0.195437	0.195557
C184	C	0.126015	-0.428511	-0.428533
C185	C	0.459349	-0.095178	-0.095200
C186	C	0.792682	0.238156	0.238134
C187	C	0.102547	-0.378248	-0.378431
C188	C	0.435880	-0.044914	-0.045097
C189	C	0.769213	0.288419	0.288236
C190	C	0.125993	-0.327981	-0.328316
C191	C	0.459327	0.005352	0.005017
C192	C	0.792660	0.338685	0.338351
C193	C	0.055629	-0.378255	-0.378437
C194	C	0.388962	-0.044922	-0.045104
C195	C	0.722296	0.288412	0.288230
C196	C	0.032182	-0.428521	-0.428552
C197	C	0.365515	-0.095188	-0.095218
C198	C	0.698849	0.238145	0.238115
C199	C	0.055653	-0.478781	-0.478660
C200	C	0.388987	-0.145447	-0.145327
C201	C	0.722320	0.187886	0.188007
C202	C	0.102569	-0.478778	-0.478648
C203	C	0.435902	-0.145444	-0.145314
C204	C	0.769235	0.187889	0.188019
C205	C	0.102522	-0.277722	-0.278208
C206	C	0.435856	0.055611	0.055125
C207	C	0.769189	0.388945	0.388459
C208	C	0.055607	-0.277730	-0.278224
C209	C	0.388940	0.055603	0.055110
C210	C	0.722274	0.388937	0.388443
C211	C	0.032160	-0.327996	-0.328338
C212	C	0.365493	0.005337	0.004995
C213	C	0.698827	0.338670	0.338328
C214	C	0.766407	-0.378276	-0.378446
C215	C	1.099740	-0.044943	-0.045112
C216	C	1.433074	0.288390	0.288221
C217	C	0.816342	-0.378291	-0.378470
C218	C	1.149675	-0.044957	-0.045137
C219	C	1.483008	0.288376	0.288196
C220	C	0.649256	-0.378184	-0.583133
C221	C	0.982589	-0.044851	-0.249799
C222	C	1.315923	0.288482	0.083534
C223	C	0.649268	-0.378160	-0.670383
C224	C	0.982601	-0.044826	-0.337049
C225	C	1.315934	0.288507	-0.003716
C226	C	0.649285	-0.173498	-0.378437
C227	C	0.982618	0.159835	-0.045104
C228	C	1.315951	0.493169	0.288230
C229	C	0.649308	-0.086248	-0.378458
C230	C	0.982642	0.247085	-0.045124
C231	C	1.315975	0.580419	0.288209
C232	C	0.678016	-0.327958	-0.711400
C233	C	1.011349	0.005375	-0.378067
C234	C	1.344683	0.338709	-0.044733
C235	C	0.678021	-0.327932	-0.793381
C236	C	1.011355	0.005401	-0.460047
C237	C	1.344688	0.338735	-0.126714
C238	C	0.649280	-0.378112	-0.834342
C239	C	0.982614	-0.044779	-0.501009
C240	C	1.315947	0.288555	-0.167676
C241	C	0.620529	-0.428316	-0.793319
C242	C	0.953862	-0.094983	-0.459986
C243	C	1.287196	0.238351	-0.126652
C244	C	0.620522	-0.428337	-0.711340
C245	C	0.953855	-0.095004	-0.378007
C246	C	1.287188	0.238329	-0.044673
C247	C	0.620547	-0.428269	-0.964189
C248	C	0.953880	-0.094935	-0.630856
C249	C	1.287214	0.238398	-0.297523
C250	C	0.620555	-0.428248	-1.046174
C251	C	0.953888	-0.094915	-0.712841
C252	C	1.287221	0.238418	-0.379507
C253	C	0.678047	-0.327863	-1.046230
C254	C	1.011380	0.005470	-0.712896
C255	C	1.344713	0.338804	-0.379563
C256	C	0.678039	-0.327885	-0.964251
C257	C	1.011373	0.005449	-0.630917
C258	C	1.344706	0.338782	-0.297584
C259	C	0.649288	-0.378090	-0.923233
C260	C	0.982622	-0.044757	-0.589900
C261	C	1.315955	0.288577	-0.256567
C262	C	0.649228	-0.378243	-0.174441
C263	C	0.982561	-0.044910	0.158893
C264	C	1.315894	0.288424	0.492226
C265	C	0.649303	-0.378047	-0.087191
C266	C	0.982636	-0.044713	0.246142
C267	C	1.315970	0.288620	0.579475
H268	H	0.701363	-0.677056	-0.287387
H269	H	1.034696	-0.343723	0.045946
H270	H	1.368030	-0.010389	0.379280
H271	H	0.701456	-0.286983	-1.079630
H272	H	1.034789	0.046350	-0.746297
H273	H	1.368123	0.379684	-0.412963
H274	H	0.393123	-0.469419	-0.469280
H275	H	0.726456	-0.136086	-0.135947
H276	H	1.059789	0.197247	0.197387
H277	H	0.597150	-0.469108	-1.079523
H278	H	0.930484	-0.135774	-0.746189
H279	H	1.263817	0.197559	-0.412856
H280	H	-0.179286	-0.469483	-0.469387
H281	H	0.154048	-0.136150	-0.136054
H282	H	0.487381	0.197183	0.197279
H283	H	0.701422	-0.287098	-0.678055
H284	H	1.034755	0.046235	-0.344722
H285	H	1.368088	0.379569	-0.011388
H286	H	0.478231	-0.469417	-0.469244
H287	H	0.811565	-0.136084	-0.135910
H288	H	1.144898	0.197249	0.197423
H289	H	0.701402	-0.825775	-0.287424
H290	H	1.034735	-0.492441	0.045909
H291	H	1.368069	-0.159108	0.379242
H292	H	-0.179316	-0.287099	-0.287546
H293	H	0.154017	0.046235	0.045787
H294	H	0.487351	0.379568	0.379120
H295	H	0.597128	-0.469139	-0.930795
H296	H	0.930461	-0.135805	-0.597462
H297	H	1.263794	0.197528	-0.264129
H298	H	0.701432	-0.287055	-0.826773
H299	H	1.034765	0.046279	-0.493440
H300	H	1.368099	0.379612	-0.160107
H301	H	0.478195	-0.287024	-0.287413
H302	H	0.811529	0.046309	0.045920
H303	H	1.144862	0.379643	0.379253
H304	H	0.701445	-0.287028	-0.930902
H305	H	1.034779	0.046305	-0.597569
H306	H	1.368112	0.379639	-0.264235
H307	H	0.701465	-1.078631	-0.287473
H308	H	1.034798	-0.745298	0.045860
H309	H	1.368131	-0.411964	0.379193
H310	H	0.597126	-0.469170	-0.826676
H311	H	0.930459	-0.135837	-0.493343
H312	H	1.263793	0.197496	-0.160010
H313	H	0.597107	-0.469209	-0.677945
H314	H	0.930441	-0.135876	-0.344611
H315	H	1.263774	0.197458	-0.011278
H316	H	0.262419	-0.519700	-0.519414
H317	H	0.595752	-0.186367	-0.186081
H318	H	0.929086	0.146966	0.147253
H319	H	0.177258	-0.236767	-0.237384
H320	H	0.510591	0.096567	0.095949
H321	H	0.843925	0.429900	0.429282
H322	H	0.121673	-0.519711	-0.519449
H323	H	0.455006	-0.186377	-0.186116
H324	H	0.788339	0.146956	0.147217
H325	H	0.701425	-0.929901	-0.287439
H326	H	1.034759	-0.596568	0.045895
H327	H	1.368092	-0.263234	0.379228
H328	H	-0.094208	-0.287077	-0.287537
H329	H	0.239125	0.046257	0.045797
H330	H	0.572458	0.379590	0.379130
H331	H	0.177314	-0.519705	-0.519437
H332	H	0.510648	-0.186371	-0.186103
H333	H	0.843981	0.146962	0.147230
H334	H	0.597160	-1.078635	-0.469451
H335	H	0.930494	-0.745302	-0.136117
H336	H	1.263827	-0.411969	0.197216
H337	H	0.597117	-0.929908	-0.469414
H338	H	0.930450	-0.596575	-0.136081
H339	H	1.263784	-0.263242	0.197253
H340	H	0.597057	-0.677057	-0.469362
H341	H	0.930390	-0.343724	-0.136028
H342	H	1.263723	-0.010391	0.197305
H343	H	0.597096	-0.825789	-0.469390
H344	H	0.930429	-0.492456	-0.136057
H345	H	1.263762	-0.159123	0.197277
H346	H	0.262366	-0.236750	-0.237382
H347	H	0.595700	0.096584	0.095952
H348	H	0.929033	0.429917	0.429285
H349	H	-0.094164	-0.469482	-0.469373
H350	H	0.239170	-0.136149	-0.136039
H351	H	0.572503	0.197184	0.197294
H352	H	0.393072	-0.287024	-0.287432
H353	H	0.726405	0.046309	0.045902
H354	H	1.059739	0.379643	0.379235
H355	H	0.036555	-0.519712	-0.519463
H356	H	0.369888	-0.186378	-0.186130
H357	H	0.703221	0.146955	0.147204
H358	H	0.121608	-0.236788	-0.237398
H359	H	0.454941	0.096545	0.095936
H360	H	0.788275	0.429879	0.429269
H361	H	0.036503	-0.236796	-0.237414
H362	H	0.369836	0.096537	0.095919
H363	H	0.703169	0.429870	0.429252
