data_functionalizedCrystal
_audit_creation_method	'MofGen! by Chris Wilmer'
_symmetry_space_group_name_H-M	'P1'
_symmetry_Int_Tables_number	1
_symmetry_cell_setting	triclinic
loop_
_symmetry_equiv_pos_as_xyz
  x,y,z
_cell_length_a	10.686220
_cell_length_b	19.121063
_cell_length_c	10.686551
_cell_angle_alpha	91.787201
_cell_angle_beta	89.691918
_cell_angle_gamma	96.652836
loop_
_atom_site_label
_atom_site_type_symbol
_atom_site_fract_x
_atom_site_fract_y
_atom_site_fract_z
Zn1	Zn	1.960178	-0.171149	0.576393
Zn2	Zn	1.934959	-0.298212	0.377034
Zn3	Zn	1.733026	-0.189107	0.384180
Zn4	Zn	1.741490	-0.296789	0.602695
O5	O	1.842413	-0.238814	0.485075
O6	O	2.132864	-0.181084	0.535949
O7	O	1.894076	-0.291850	0.203100
O8	O	1.770171	-0.088483	0.401661
O9	O	2.114336	-0.274436	0.389481
O10	O	1.937058	-0.075289	0.542879
O11	O	1.745717	-0.211691	0.208351
O12	O	1.558117	-0.210311	0.427165
O13	O	1.784596	-0.272012	0.774087
O14	O	1.564336	-0.289425	0.587707
O15	O	1.945265	-0.179704	0.754764
O16	O	1.902282	-0.396264	0.414984
O17	O	1.760141	-0.395219	0.580777
C18	C	1.515583	-0.251663	0.511066
C19	C	1.375765	-0.257175	0.522216
C20	C	1.829430	-0.421212	0.499984
C21	C	1.823994	-0.499236	0.506394
C22	C	1.895514	-0.536407	0.423148
C23	C	1.890409	-0.609719	0.429183
C24	C	1.813778	-0.645858	0.518461
C25	C	1.742256	-0.608681	0.601716
C26	C	1.747368	-0.535371	0.595685
C27	C	1.794644	-0.867182	0.540991
C28	C	1.789534	-0.940498	0.547013
C29	C	1.937690	-0.941530	0.374481
C30	C	1.942789	-0.868219	0.368454
C31	C	1.871272	-0.831048	0.451713
C32	C	1.808556	-0.720794	0.524630
C33	C	1.876502	-0.756113	0.445549
C34	C	2.170519	-0.225915	0.458984
C35	C	2.310339	-0.220419	0.447865
C36	C	1.868688	-0.223696	0.811038
C37	C	1.879884	-0.217254	0.949944
C38	C	1.855484	-0.055701	0.470134
C39	C	1.861053	0.022331	0.463766
C40	C	1.816317	-0.253820	0.160371
C41	C	1.805378	-0.260055	0.021430
H42	H	1.324808	-0.292868	0.594399
C43	C	1.336377	-0.194268	0.230334
C44	C	1.379114	-0.172243	0.350414
H45	H	1.378850	-0.164528	0.170172
H46	H	1.248300	-0.191773	0.225300
H47	H	1.353020	-0.241440	0.214088
H48	H	1.362463	-0.125072	0.366664
H49	H	1.467211	-0.174731	0.355452
C50	C	2.041450	-0.544799	0.253221
C51	C	1.979750	-0.496687	0.325009
H52	H	2.093461	-0.520276	0.192640
H53	H	1.980828	-0.577802	0.212088
H54	H	2.091921	-0.568938	0.306251
H55	H	1.929270	-0.472551	0.271980
H56	H	2.040379	-0.463671	0.366145
C57	C	2.144287	-0.958435	0.298688
C58	C	2.016314	-0.982384	0.282973
H59	H	2.192830	-0.983653	0.242188
H60	H	2.168548	-0.965811	0.382188
H61	H	2.158274	-0.909601	0.282325
H62	H	2.002325	-1.031217	0.299346
H63	H	1.992045	-0.975015	0.199454
C64	C	2.098559	-0.172826	0.970647
C65	C	1.977570	-0.161128	1.010780
H66	H	2.158862	-0.138179	1.008213
H67	H	2.103586	-0.169934	0.882161
H68	H	2.115287	-0.218296	0.994372
H69	H	1.960837	-0.115660	0.987048
H70	H	1.972538	-0.164013	1.099286
C71	C	2.052736	-0.686062	0.405502
C72	C	1.969244	-0.650500	0.337765
H73	H	2.101478	-0.711211	0.349086
H74	H	2.006365	-0.718130	0.459425
H75	H	2.107004	-0.652959	0.453918
H76	H	1.914969	-0.683603	0.289355
H77	H	2.015618	-0.618429	0.283820
H78	H	2.005188	-0.838796	0.295757
H79	H	1.679867	-0.638111	0.674412
C80	C	1.643622	-0.932116	0.716979
C81	C	1.705308	-0.980223	0.645165
H82	H	1.591635	-0.956642	0.777575
H83	H	1.593140	-0.907978	0.663977
H84	H	1.704262	-0.899109	0.758106
H85	H	1.644668	-1.013227	0.604031
H86	H	1.755794	-1.004373	0.698175
H87	H	1.736409	-0.836924	0.608781
C88	C	1.749066	-0.445794	0.758389
C89	C	1.668754	-0.494508	0.687192
H90	H	1.700533	-0.420570	0.814890
H91	H	1.795424	-0.413785	0.704354
H92	H	1.805693	-0.469992	0.804224
H93	H	1.612133	-0.470309	0.641349
H94	H	1.622375	-0.526521	0.741233
C95	C	1.798741	-0.796113	0.700879
C96	C	1.724314	-0.760526	0.622751
H97	H	1.746732	-0.820646	0.761449
H98	H	1.859339	-0.763102	0.742025
H99	H	1.840610	-0.828735	0.652147
H100	H	1.682452	-0.727899	0.671483
H101	H	1.663693	-0.793541	0.581603
C102	C	1.732416	-0.383196	0.995570
C103	C	1.707708	-0.316182	0.960595
H104	H	1.672124	-0.417847	0.957998
H105	H	1.727366	-0.386081	1.084057
H106	H	1.814510	-0.391112	0.968354
H107	H	1.625617	-0.308264	0.987820
H108	H	1.712747	-0.313295	0.872090
H109	H	1.938901	-0.726686	0.372863
