data_functionalizedCrystal
_audit_creation_method	'MofGen! by Chris Wilmer'
_symmetry_space_group_name_H-M	'P1'
_symmetry_Int_Tables_number	1
_symmetry_cell_setting	triclinic
loop_
_symmetry_equiv_pos_as_xyz
  x,y,z
_cell_length_a	15.944493
_cell_length_b	19.188924
_cell_length_c	14.421503
_cell_angle_alpha	90.002214
_cell_angle_beta	89.992936
_cell_angle_gamma	83.308504
loop_
_atom_site_label
_atom_site_type_symbol
_atom_site_fract_x
_atom_site_fract_y
_atom_site_fract_z
O1	O	1.114221	0.089846	-0.077104
O2	O	0.869622	0.100990	-0.077109
O3	O	0.998983	-0.006221	-0.077095
O4	O	0.984860	0.197057	-0.077117
O5	O	0.998962	-0.006205	0.077128
O6	O	0.869601	0.101006	0.077115
O7	O	1.114199	0.089862	0.077120
Cu8	Cu	0.991898	0.095435	0.091199
Cu9	Cu	0.991924	0.095416	-0.091188
O10	O	0.984839	0.197073	0.077106
C11	C	0.838319	0.100543	0.000002
C12	C	0.745075	0.099177	0.000001
C13	C	0.509077	0.162284	-0.000007
C14	C	0.458637	0.128261	0.076041
C15	C	0.574364	0.096647	0.000003
C16	C	0.458662	0.128229	-0.076011
C17	C	0.409463	0.094207	0.000001
C18	C	0.525151	0.062641	0.076114
C19	C	0.525180	0.062620	-0.076007
C20	C	0.474773	0.028548	0.000060
C21	C	0.669358	0.098054	0.000005
C22	C	0.314472	0.092795	0.000006
C23	C	0.998516	-0.032225	0.000017
C24	C	0.997146	-0.109733	0.000020
C25	C	0.996518	-0.146142	-0.084048
C26	C	0.995219	-0.218968	-0.084055
C27	C	0.994565	-0.255384	0.000011
C28	C	0.995188	-0.218966	0.084089
C29	C	0.996478	-0.146140	0.084094
N30	N	1.040330	-0.374930	0.062579
N31	N	1.039106	-0.444112	0.062569
C32	C	0.990674	-0.474803	0.000002
N33	N	0.943523	-0.433700	-0.062570
N34	N	0.944751	-0.364513	-0.062562
C35	C	0.993164	-0.334351	0.000015
C36	C	0.988636	-0.590178	-0.084079
C37	C	0.987332	-0.663004	-0.084083
C38	C	0.987309	-0.663001	0.084063
C39	C	0.988605	-0.590175	0.084064
C40	C	0.989272	-0.553768	-0.000010
C41	C	1.145503	0.090309	0.000007
C42	C	1.238747	0.091675	0.000002
C43	C	0.985306	0.223077	-0.000008
C44	C	0.986676	0.300585	-0.000017
N45	N	0.991887	0.095448	0.219480
N46	N	0.991942	0.095398	-0.219469
C47	C	0.932060	0.145000	0.469128
C48	C	1.007911	0.158542	0.530930
C49	C	0.991907	0.095432	0.408642
C50	C	0.916076	0.081906	0.530933
C51	C	0.991920	0.095417	0.591363
C52	C	1.067796	0.109005	0.469083
C53	C	0.975911	0.032341	0.469081
C54	C	1.051817	0.045856	0.530856
C55	C	0.991898	0.095442	0.303381
C56	C	0.991937	0.095406	0.696622
H57	H	0.429628	0.155956	-0.140294
H58	H	0.554075	0.034945	0.140470
O59	O	0.456609	-0.038962	0.000279
C60	C	0.490808	-0.073298	0.080547
H61	H	0.499872	-0.032749	0.136324
H62	H	0.554371	-0.104088	0.063131
C63	C	0.418922	-0.173792	0.047901
C64	C	0.430048	-0.123989	0.116410
H65	H	0.381446	-0.205063	0.070021
H66	H	0.395884	-0.150661	-0.006179
H67	H	0.471896	-0.199443	0.033393
H68	H	0.377077	-0.098334	0.130908
H69	H	0.453076	-0.147118	0.170493
H70	H	0.881500	0.186953	0.442025
H71	H	1.102489	0.003929	0.557789
O72	O	0.989183	-0.554711	-0.165679
C73	C	0.917202	-0.504666	-0.170730
H74	H	0.893121	-0.491120	-0.097741
H75	H	0.865783	-0.527171	-0.212244
C76	C	0.970137	-0.454531	-0.308408
C77	C	0.940565	-0.437890	-0.218762
H78	H	0.984546	-0.413342	-0.338041
H79	H	1.018631	-0.488249	-0.305008
H80	H	0.927283	-0.473287	-0.342992
H81	H	0.983422	-0.419143	-0.184177
H82	H	0.892078	-0.404168	-0.222158
O83	O	0.997119	-0.110881	-0.165797
C84	C	0.996307	-0.158641	-0.239999
H85	H	0.968798	-0.207660	-0.215355
H86	H	1.063547	-0.173720	-0.265847
C87	C	0.975534	-0.064023	-0.349697
C88	C	0.941741	-0.124225	-0.319430
H89	H	0.941879	-0.042793	-0.398696
H90	H	0.976084	-0.031845	-0.299706
H91	H	1.031567	-0.076597	-0.371230
H92	H	0.885713	-0.111649	-0.297887
H93	H	0.941180	-0.156400	-0.369420
H94	H	1.021452	0.211890	0.558097
H95	H	0.989123	-0.560531	0.152521
H96	H	0.986816	-0.692647	-0.152544
H97	H	1.131945	0.120502	0.442030
H98	H	0.962346	-0.020990	0.441893
H99	H	0.554240	0.034914	-0.140296
O100	O	0.994437	-0.254400	0.165692
C101	C	0.920948	-0.288593	0.170725
H102	H	0.896521	-0.296866	0.097730
H103	H	0.870507	-0.254981	0.212208
C104	C	0.971809	-0.350013	0.308444
C105	C	0.941811	-0.360179	0.218789
H106	H	0.984676	-0.394169	0.338096
H107	H	1.021319	-0.326974	0.305056
H108	H	0.929770	-0.322000	0.343001
H109	H	0.983854	-0.388183	0.184230
H110	H	0.892309	-0.383223	0.222173
H111	H	0.851941	0.070473	0.558103
O112	O	0.997126	-0.110881	0.165844
C113	C	0.996242	-0.158631	0.240044
H114	H	1.021911	-0.213440	0.215399
H115	H	0.928726	-0.159039	0.265887
C116	C	1.020277	-0.068887	0.349747
C117	C	1.051811	-0.136203	0.319480
H118	H	1.054551	-0.055052	0.398749
H119	H	1.020869	-0.036716	0.299758
H120	H	0.964014	-0.069235	0.371276
H121	H	1.108069	-0.135853	0.297940
H122	H	1.051230	-0.168374	0.369467
H123	H	0.524488	0.218823	0.000058
H124	H	0.429586	0.155987	0.140327
H125	H	0.986769	-0.692649	0.152511
H126	H	0.994703	-0.248618	-0.152515
