data_functionalizedCrystal
_audit_creation_method	'MofGen! by Chris Wilmer'
_symmetry_space_group_name_H-M	'P1'
_symmetry_Int_Tables_number	1
_symmetry_cell_setting	triclinic
loop_
_symmetry_equiv_pos_as_xyz
  x,y,z
_cell_length_a	11.169417
_cell_length_b	11.169416
_cell_length_c	12.645324
_cell_angle_alpha	90.027411
_cell_angle_beta	90.020300
_cell_angle_gamma	90.012027
loop_
_atom_site_label
_atom_site_type_symbol
_atom_site_fract_x
_atom_site_fract_y
_atom_site_fract_z
Zn1	Zn	-1.834923	0.477751	-0.599430
Zn2	Zn	-1.834808	0.678490	-0.422183
Zn3	Zn	-1.634214	0.477815	-0.422180
Zn4	Zn	-1.634207	0.678387	-0.599404
O5	O	-1.734538	0.578111	-0.510799
O6	O	-2.002857	0.504396	-0.575930
O7	O	-1.808153	0.651939	-0.273835
O8	O	-1.660889	0.309857	-0.445702
O9	O	-2.002773	0.651877	-0.445708
O10	O	-1.808350	0.309810	-0.575927
O11	O	-1.660778	0.504505	-0.273833
O12	O	-1.466263	0.504406	-0.445676
O13	O	-1.660878	0.651703	-0.747755
O14	O	-1.466258	0.651765	-0.575882
O15	O	-1.808343	0.504296	-0.747774
O16	O	-1.808146	0.846426	-0.445683
O17	O	-1.660766	0.846351	-0.575886
C18	C	-1.422713	0.578082	-0.510777
C19	C	-1.289313	0.578099	-0.510792
C20	C	-1.734475	0.889936	-0.510805
C21	C	-1.734558	1.023336	-0.510843
C22	C	-1.047580	0.578130	-0.510814
C23	C	-1.180980	0.578113	-0.510799
C24	C	-1.734622	0.577981	-0.787305
C25	C	-1.734658	0.577926	-0.905135
C26	C	-1.734621	1.265069	-0.510828
C27	C	-1.734626	1.131669	-0.510868
C28	C	-1.827450	0.485172	-0.950029
C29	C	-1.827848	0.485415	-1.072589
C30	C	-1.768583	0.704465	-1.073023
C31	C	-1.769221	0.703960	-0.950425
C32	C	-1.607783	0.545179	-0.950306
C33	C	-1.608497	0.542358	-1.072913
C34	C	-1.734523	0.578154	-0.235369
C35	C	-1.734719	0.577871	-0.117540
H36	H	-1.806538	0.391036	-0.920567
H37	H	-1.704526	0.775422	-0.920724
O38	O	-1.939953	0.511283	-1.107781
C39	C	-1.940745	0.511660	-1.219277
H40	H	-1.863202	0.455092	-1.249902
H41	H	-1.930749	0.607447	-1.249098
C42	C	-2.155101	0.528570	-1.221802
C43	C	-2.059867	0.459083	-1.259416
H44	H	-2.228583	0.496144	-1.246563
H45	H	-2.154568	0.528321	-1.146685
H46	H	-2.146755	0.608388	-1.246656
H47	H	-2.068207	0.379271	-1.234551
H48	H	-2.060404	0.459318	-1.334530
O49	O	-1.690380	0.789012	-1.107887
C50	C	-1.603609	0.734795	-1.173174
H51	H	-1.640881	0.647669	-1.206718
H52	H	-1.519817	0.714971	-1.124753
C53	C	-1.525891	0.927056	-1.223390
C54	C	-1.571672	0.820050	-1.264596
H55	H	-1.506185	0.979646	-1.279781
H56	H	-1.584346	0.963584	-1.179402
H57	H	-1.456069	0.910519	-1.183039
H58	H	-1.641500	0.836587	-1.304934
H59	H	-1.513228	0.783527	-1.308593
O60	O	-1.879849	0.737163	-0.916442
C61	C	-1.906214	0.853004	-0.954074
H62	H	-1.849862	0.872401	-1.027236
H63	H	-1.884874	0.921634	-0.890020
C64	C	-2.109177	0.836807	-0.893021
C65	C	-2.039972	0.860627	-0.982885
H66	H	-2.191686	0.841513	-0.910788
H67	H	-2.091414	0.758765	-0.867663
H68	H	-2.091380	0.894002	-0.839651
H69	H	-2.057759	0.803424	-1.036248
H70	H	-2.057741	0.938660	-1.008252
H71	H	-1.860297	0.732642	-1.103763
O72	O	-1.939045	0.510556	-0.913362
C73	C	-2.021282	0.426690	-0.954295
H74	H	-1.971774	0.341364	-0.977410
H75	H	-2.067240	0.465913	-1.026951
C76	C	-2.176711	0.502155	-0.841246
C77	C	-2.115907	0.397352	-0.869628
H78	H	-2.235084	0.484061	-0.789023
H79	H	-2.121309	0.558660	-0.813671
H80	H	-2.214999	0.534830	-0.901800
H81	H	-2.077607	0.364687	-0.809078
H82	H	-2.171305	0.340840	-0.897191
H83	H	-1.582951	0.449195	-1.102012
O84	O	-1.521596	0.616862	-1.109524
C85	C	-1.435986	0.549993	-1.166301
H86	H	-1.478404	0.463221	-1.195510
H87	H	-1.357048	0.528254	-1.112461
C88	C	-1.339707	0.730103	-1.225720
C89	C	-1.391808	0.623533	-1.261603
H90	H	-1.312451	0.775467	-1.284504
H91	H	-1.397381	0.775155	-1.187465
H92	H	-1.273932	0.711972	-1.180853
H93	H	-1.457591	0.641665	-1.306458
H94	H	-1.334145	0.578486	-1.299868
O95	O	-1.570941	0.436995	-0.913265
C96	C	-1.564299	0.440778	-0.801968
H97	H	-1.625193	0.514787	-0.770981
H98	H	-1.468090	0.459549	-0.776790
C99	C	-1.529960	0.228682	-0.794318
C100	C	-1.604758	0.319574	-0.756259
H101	H	-1.554911	0.153916	-0.766122
H102	H	-1.534430	0.226132	-0.869301
H103	H	-1.449791	0.244340	-0.773334
H104	H	-1.684922	0.303922	-0.777255
H105	H	-1.600302	0.322118	-0.681278
O106	O	-1.802465	0.373429	-1.108374
C107	C	-1.688676	0.338354	-1.071353
H108	H	-1.665290	0.391792	-0.997344
H109	H	-1.618836	0.356119	-1.135172
C110	C	-1.719035	0.138221	-1.135578
C111	C	-1.690317	0.203848	-1.044674
H112	H	-1.720044	0.055251	-1.119126
H113	H	-1.795695	0.161852	-1.160524
H114	H	-1.660830	0.153039	-1.188752
H115	H	-1.748529	0.189042	-0.991507
H116	H	-1.613666	0.180211	-1.019719
O117	O	-1.525161	0.625682	-0.915795
C118	C	-1.411733	0.595440	-0.956754
H119	H	-1.423394	0.539231	-1.031322
H120	H	-1.359669	0.541937	-0.895287
C121	C	-1.328087	0.779644	-0.892211
C122	C	-1.342409	0.710616	-0.983802
H123	H	-1.285321	0.850689	-0.908892
H124	H	-1.404504	0.800018	-0.864613
H125	H	-1.284704	0.735045	-0.840998
H126	H	-1.385804	0.755209	-1.035009
H127	H	-1.265997	0.690253	-1.011410
