data_functionalizedCrystal
_audit_creation_method	'MofGen! by Chris Wilmer'
_symmetry_space_group_name_H-M	'P1'
_symmetry_Int_Tables_number	1
_symmetry_cell_setting	triclinic
loop_
_symmetry_equiv_pos_as_xyz
  x,y,z
_cell_length_a	20.453700
_cell_length_b	9.582880
_cell_length_c	9.582860
_cell_angle_alpha	89.899908
_cell_angle_beta	111.206767
_cell_angle_gamma	111.207034
loop_
_atom_site_label
_atom_site_type_symbol
_atom_site_fract_x
_atom_site_fract_y
_atom_site_fract_z
V1	V	-1.385450	-0.466328	-0.206425
V2	V	-0.885450	0.033672	0.293575
O3	O	-1.366784	-0.457733	0.010569
O4	O	-0.866784	0.042267	0.510569
O5	O	-1.382153	-0.462867	-0.409930
O6	O	-0.882153	0.037133	0.090070
O7	O	-1.382153	-0.669833	-0.202964
O8	O	-0.882153	-0.169833	0.297036
O9	O	-1.366784	-0.249334	-0.197829
O10	O	-0.866784	0.250666	0.302171
V11	V	-1.543333	-0.440407	-0.180503
V12	V	-1.043333	0.059593	0.319497
O13	O	-1.479757	-0.523188	-0.263285
O14	O	-0.979757	-0.023188	0.236715
O15	O	-1.599093	-0.383546	-0.123643
O16	O	-1.099093	0.116454	0.376357
O17	O	-1.472229	-0.443867	0.023002
O18	O	-0.972229	0.056133	0.523002
O19	O	-1.601132	-0.449001	-0.397497
O20	O	-1.101132	0.050999	0.102503
O21	O	-1.601132	-0.657401	-0.189098
O22	O	-1.101132	-0.157401	0.310902
O23	O	-1.472228	-0.236901	-0.183964
O24	O	-0.972228	0.263099	0.316036
V25	V	-1.052117	-0.466328	-0.206425
V26	V	-0.552117	0.033672	0.293575
O27	O	-1.033451	-0.457733	0.010569
O28	O	-0.533451	0.042267	0.510569
O29	O	-1.048819	-0.462867	-0.409930
O30	O	-0.548819	0.037133	0.090070
O31	O	-1.048820	-0.669833	-0.202964
O32	O	-0.548820	-0.169833	0.297036
O33	O	-1.033450	-0.249334	-0.197829
O34	O	-0.533450	0.250666	0.302171
V35	V	-1.210000	-0.440407	-0.180503
V36	V	-0.710000	0.059593	0.319497
O37	O	-1.146423	-0.523188	-0.263285
O38	O	-0.646423	-0.023188	0.236715
O39	O	-1.265760	-0.383546	-0.123643
O40	O	-0.765760	0.116454	0.376357
O41	O	-1.138896	-0.443867	0.023002
O42	O	-0.638896	0.056133	0.523002
O43	O	-1.267798	-0.449001	-0.397497
O44	O	-0.767798	0.050999	0.102503
O45	O	-1.267799	-0.657401	-0.189098
O46	O	-0.767799	-0.157401	0.310902
O47	O	-1.138895	-0.236901	-0.183964
O48	O	-0.638895	0.263099	0.316036
V49	V	-0.718784	-0.466328	-0.206425
V50	V	-0.218784	0.033672	0.293575
O51	O	-0.700118	-0.457733	0.010569
O52	O	-0.200118	0.042267	0.510569
O53	O	-0.715486	-0.462867	-0.409930
O54	O	-0.215486	0.037133	0.090070
O55	O	-0.715486	-0.669833	-0.202964
O56	O	-0.215486	-0.169833	0.297036
O57	O	-0.700117	-0.249334	-0.197829
O58	O	-0.200117	0.250666	0.302171
V59	V	-0.876667	-0.440407	-0.180503
V60	V	-0.376667	0.059593	0.319497
O61	O	-0.813090	-0.523188	-0.263285
O62	O	-0.313090	-0.023188	0.236715
O63	O	-0.932426	-0.383546	-0.123643
O64	O	-0.432426	0.116454	0.376357
O65	O	-0.805562	-0.443867	0.023002
O66	O	-0.305562	0.056133	0.523002
O67	O	-0.934465	-0.449001	-0.397497
O68	O	-0.434465	0.050999	0.102503
O69	O	-0.934466	-0.657401	-0.189098
O70	O	-0.434466	-0.157401	0.310902
O71	O	-0.805562	-0.236901	-0.183964
O72	O	-0.305562	0.263099	0.316036
C73	C	-1.333193	-0.455441	-0.459549
C74	C	-0.833193	0.044559	0.040451
C75	C	-1.357678	-0.453968	-0.625916
C76	C	-0.857678	0.046032	-0.125916
C77	C	-1.333193	-0.719445	-0.195542
C78	C	-0.833193	-0.219445	0.304458
C79	C	-1.357677	-0.885810	-0.194059
C80	C	-0.857677	-0.385810	0.305941
C81	C	-1.408969	-0.187282	-0.191391
C82	C	-0.908969	0.312718	0.308609
C83	C	-1.377564	-0.020915	-0.192866
C84	C	-0.877564	0.479085	0.307134
C85	C	-1.408969	-0.451290	0.072614
C86	C	-0.908969	0.048710	0.572614
C87	C	-1.377565	-0.452773	0.238979
C88	C	-0.877565	0.047227	0.738979
C89	C	-0.999860	-0.455441	-0.459549
C90	C	-0.499860	0.044559	0.040451
C91	C	-1.024345	-0.453968	-0.625916
C92	C	-0.524345	0.046032	-0.125916
C93	C	-0.999860	-0.719445	-0.195542
C94	C	-0.499860	-0.219445	0.304458
C95	C	-1.024344	-0.885810	-0.194059
C96	C	-0.524344	-0.385810	0.305941
C97	C	-1.075636	-0.451290	0.072614
C98	C	-0.575636	0.048710	0.572614
C99	C	-1.044231	-0.452773	0.238979
C100	C	-0.544231	0.047227	0.738979
C101	C	-1.075635	-0.187282	-0.191391
C102	C	-0.575635	0.312718	0.308609
C103	C	-1.044231	-0.020915	-0.192866
C104	C	-0.544231	0.479085	0.307134
C105	C	-0.666527	-0.455441	-0.459549
C106	C	-0.166527	0.044559	0.040451
C107	C	-0.691011	-0.453968	-0.625916
C108	C	-0.191011	0.046032	-0.125916
C109	C	-0.666527	-0.719445	-0.195542
C110	C	-0.166527	-0.219445	0.304458
C111	C	-0.691010	-0.885810	-0.194059
C112	C	-0.191010	-0.385810	0.305941
C113	C	-0.742303	-0.451290	0.072614
C114	C	-0.242303	0.048710	0.572614
C115	C	-0.710898	-0.452773	0.238979
C116	C	-0.210898	0.047227	0.738979
C117	C	-0.742302	-0.187282	-0.191391
C118	C	-0.242302	0.312718	0.308609
C119	C	-0.710897	-0.020915	-0.192866
C120	C	-0.210897	0.479085	0.307134
