data_functionalizedCrystal
_audit_creation_method	'MofGen! by Chris Wilmer'
_symmetry_space_group_name_H-M	'P1'
_symmetry_Int_Tables_number	1
_symmetry_cell_setting	triclinic
loop_
_symmetry_equiv_pos_as_xyz
  x,y,z
_cell_length_a	19.188933
_cell_length_b	27.732064
_cell_length_c	18.266242
_cell_angle_alpha	89.997719
_cell_angle_beta	89.992377
_cell_angle_gamma	82.897496
loop_
_atom_site_label
_atom_site_type_symbol
_atom_site_fract_x
_atom_site_fract_y
_atom_site_fract_z
O1	O	0.925769	0.060352	-0.060850
O2	O	1.425769	0.560352	0.439150
O3	O	0.722406	0.068475	-0.060856
O4	O	1.222406	0.568475	0.439144
O5	O	0.830397	-0.005964	-0.060856
O6	O	1.330397	0.494036	0.439144
O7	O	0.817778	0.134790	-0.060850
O8	O	1.317778	0.634790	0.439150
O9	O	0.830379	-0.005967	0.060906
O10	O	1.330379	0.494033	0.560906
O11	O	0.722388	0.068471	0.060906
O12	O	1.222388	0.568471	0.560906
O13	O	0.925750	0.060348	0.060912
O14	O	1.425750	0.560348	0.560912
Zn15	Zn	0.824066	0.064409	0.080241
Zn16	Zn	1.324066	0.564409	0.580241
Zn17	Zn	0.824090	0.064414	-0.080185
Zn18	Zn	1.324090	0.564414	0.419815
O19	O	0.817759	0.134786	0.060912
O20	O	1.317759	0.634786	0.560912
C21	C	0.696388	0.068210	0.000024
C22	C	1.196388	0.568210	0.500024
C23	C	0.618889	0.067419	0.000022
C24	C	1.118889	0.567419	0.500022
C25	C	0.065678	0.061783	-0.066343
C26	C	0.565678	0.561783	0.433657
C27	C	0.138498	0.062522	-0.066346
C28	C	0.638498	0.562522	0.433654
C29	C	0.174903	0.062892	0.000026
C30	C	0.674903	0.562892	0.500026
C31	C	0.138484	0.062510	0.066406
C32	C	0.638484	0.562510	0.566406
C33	C	0.065667	0.061766	0.066407
C34	C	0.565667	0.561766	0.566407
N35	N	0.283735	0.091565	0.049431
N36	N	0.783735	0.591565	0.549431
N37	N	0.352908	0.092273	0.049426
N38	N	0.852908	0.592273	0.549426
C39	C	0.394297	0.065134	0.000028
C40	C	0.894297	0.565134	0.500028
N41	N	0.363899	0.037265	-0.049376
N42	N	0.863899	0.537265	0.450624
N43	N	0.294719	0.036559	-0.049373
N44	N	0.794719	0.536559	0.450627
C45	C	0.253861	0.063699	0.000033
C46	C	0.753861	0.563699	0.500033
C47	C	0.509667	0.066314	-0.066351
C48	C	1.009667	0.566314	0.433649
C49	C	0.582489	0.067050	-0.066351
C50	C	1.082489	0.567050	0.433649
C51	C	0.582473	0.067043	0.066403
C52	C	1.082473	0.567043	0.566403
C53	C	0.509653	0.066302	0.066401
C54	C	1.009653	0.566302	0.566401
C55	C	0.473255	0.065940	0.000022
C56	C	0.973255	0.565940	0.500022
C57	C	0.830122	-0.023973	0.000023
C58	C	1.330122	0.476027	0.500023
C59	C	0.829319	-0.077630	0.000016
C60	C	1.329319	0.422370	0.500016
C61	C	0.760035	-0.454915	0.000011
C62	C	1.260035	0.045085	0.500011
C63	C	0.762990	-0.253246	0.000010
C64	C	1.262990	0.246754	0.500010
O65	O	0.709228	-0.222158	-0.000020
O66	O	1.209228	0.277842	0.499980
N67	N	0.827027	-0.233922	0.000012
N68	N	1.327027	0.266078	0.500012
C69	C	0.890329	-0.265019	0.000009
C70	C	1.390329	0.234981	0.500009
O71	O	0.944864	-0.243956	0.000003
O72	O	1.444864	0.256044	0.500003
C73	C	0.887373	-0.466688	0.000005
C74	C	1.387373	0.033312	0.500005
C75	C	0.823332	-0.486008	0.000011
C76	C	1.323332	0.013992	0.500011
C77	C	0.695999	-0.474236	0.000016
C78	C	1.195999	0.025764	0.500016
C79	C	0.695261	-0.524650	0.000020
C80	C	1.195261	-0.024650	0.500020
C81	C	0.758558	-0.555744	0.000020
C82	C	1.258558	-0.055744	0.500020
C83	C	0.822594	-0.536423	0.000015
C84	C	1.322594	-0.036423	0.500015
C85	C	0.950674	-0.497784	-0.000003
C86	C	1.450674	0.002216	0.499997
C87	C	0.949930	-0.548204	-0.000006
C88	C	1.449930	-0.048204	0.499994
C89	C	0.885889	-0.567524	-0.000000
C90	C	1.385889	-0.067524	0.500000
C91	C	0.885153	-0.617930	0.000019
C92	C	1.385153	-0.117930	0.500019
N93	N	0.821116	-0.637254	0.000017
N94	N	1.321116	-0.137254	0.500017
C95	C	0.757819	-0.606160	0.000017
C96	C	1.257819	-0.106160	0.500017
C97	C	0.891877	-0.159140	0.000013
C98	C	1.391877	0.340860	0.500013
C99	C	0.892616	-0.108723	0.000016
C100	C	1.392616	0.391277	0.500016
C101	C	0.765277	-0.096953	0.000015
C102	C	1.265277	0.403047	0.500015
C103	C	0.764538	-0.147371	0.000018
C104	C	1.264538	0.352629	0.500018
C105	C	0.827840	-0.178464	0.000011
C106	C	1.327840	0.321536	0.500011
C107	C	0.756273	-0.712035	0.000027
C108	C	1.256273	-0.212035	0.500027
C109	C	0.755541	-0.762454	0.000034
C110	C	1.255541	-0.262454	0.500034
C111	C	0.882880	-0.774220	0.000031
C112	C	1.382880	-0.274220	0.500031
C113	C	0.883613	-0.723805	0.000027
C114	C	1.383613	-0.223805	0.500027
C115	C	0.820304	-0.692713	0.000023
C116	C	1.320304	-0.192713	0.500023
O117	O	0.938887	-0.649047	0.000041
O118	O	1.438887	-0.149047	0.500041
O119	O	0.703292	-0.627233	0.000007
O120	O	1.203292	-0.127233	0.500007
C121	C	0.760773	-0.404500	0.000007
C122	C	1.260773	0.095500	0.500007
C123	C	0.824808	-0.385179	0.000002
C124	C	1.324808	0.114821	0.500002
C125	C	0.888106	-0.416273	0.000002
C126	C	1.388106	0.083727	0.500002
C127	C	0.825548	-0.334763	0.000005
C128	C	1.325548	0.165237	0.500005
C129	C	0.762250	-0.303669	0.000005
C130	C	1.262250	0.196331	0.500005
C131	C	0.698214	-0.322993	0.000004
C132	C	1.198214	0.177007	0.500004
C133	C	0.697475	-0.373407	0.000008
C134	C	1.197475	0.126593	0.500008
C135	C	0.952143	-0.396949	0.000003
C136	C	1.452143	0.103051	0.500003
C137	C	0.952876	-0.346534	0.000000
C138	C	1.452876	0.153466	0.500000
C139	C	0.889578	-0.315441	0.000001
C140	C	1.389578	0.184559	0.500001
C141	C	0.951769	0.060613	0.000030
C142	C	1.451769	0.560613	0.500030
C143	C	1.029268	0.061403	0.000028
C144	C	1.529268	0.561403	0.500028
C145	C	0.818035	0.152796	0.000031
C146	C	1.318035	0.652796	0.500031
C147	C	0.818838	0.206453	0.000033
C148	C	1.318838	0.706453	0.500033
N149	N	0.824055	0.064405	0.189728
N150	N	1.324055	0.564405	0.689728
N151	N	0.824107	0.064414	-0.189672
N152	N	1.324107	0.564414	0.310328
C153	C	0.871889	0.031460	0.228037
C154	C	1.371889	0.531460	0.728037
C155	C	0.871894	0.031458	0.304682
C156	C	1.371894	0.531458	0.804682
C157	C	0.824071	0.064409	0.343015
C158	C	1.324071	0.564409	0.843015
C159	C	0.776228	0.097357	0.304697
C160	C	1.276228	0.597357	0.804697
C161	C	0.776220	0.097355	0.228054
C162	C	1.276220	0.597355	0.728054
N163	N	0.814726	0.107199	0.463349
N164	N	1.314726	0.607199	0.963349
N165	N	0.814738	0.107199	0.536157
N166	N	1.314738	0.607199	1.036157
C167	C	0.824090	0.064416	0.573938
C168	C	1.324090	0.564416	1.073938
N169	N	0.833445	0.021631	0.536160
N170	N	1.333445	0.521631	1.036160
N171	N	0.833437	0.021631	0.463345
N172	N	1.333437	0.521631	0.963345
C173	C	0.824074	0.064414	0.426122
C174	C	1.324074	0.564414	0.926122
C175	C	0.871932	0.031466	0.695354
C176	C	1.371932	0.531466	1.195354
C177	C	0.871931	0.031463	0.772000
C178	C	1.371931	0.531463	1.272000
C179	C	0.776269	0.097366	0.772013
C180	C	1.276269	0.597366	1.272013
C181	C	0.776266	0.097365	0.695368
C182	C	1.276266	0.597365	1.195368
C183	C	0.824101	0.064415	0.657043
C184	C	1.324101	0.564415	1.157043
H185	H	0.168149	0.062833	-0.120395
H186	H	0.668149	0.562833	0.379605
H187	H	0.168130	0.062810	0.120447
H188	H	0.668130	0.562810	0.620447
H189	H	0.036022	0.061459	0.120456
H190	H	0.536022	0.561459	0.620456
H191	H	0.704721	-0.686725	0.000023
H192	H	1.204721	-0.186725	0.500023
Br193	Br	1.038056	-0.439140	0.000004
Br194	Br	1.538056	0.060860	0.500004
H195	H	0.036047	0.061486	-0.120394
H196	H	0.536047	0.561486	0.379606
Br197	Br	0.612311	-0.280785	0.000009
Br198	Br	1.112311	0.219215	0.500009
Br199	Br	0.460265	0.065820	-0.156434
Br200	Br	0.960265	0.565820	0.343566
Br201	Br	0.631906	0.067558	-0.156435
Br202	Br	1.131906	0.567558	0.343565
H203	H	0.612113	0.067342	0.120444
H204	H	1.112113	0.567342	0.620444
H205	H	0.910880	0.004635	0.664148
H206	H	1.410880	0.504635	1.164148
H207	H	0.480008	0.065995	0.120448
H208	H	0.980008	0.565995	0.620448
H209	H	0.703389	-0.778182	0.000042
H210	H	1.203389	-0.278182	0.500042
Br211	Br	0.968779	-0.816427	0.000037
Br212	Br	1.468779	-0.316427	0.500037
Br213	Br	0.610558	-0.399620	0.000015
Br214	Br	1.110558	0.100380	0.500015
H215	H	1.001479	-0.573518	-0.000015
H216	H	1.501479	-0.073518	0.499985
Br217	Br	0.711348	0.142079	0.643372
Br218	Br	1.211348	0.642079	1.143372
Br219	Br	0.677623	-0.173586	0.000026
Br220	Br	1.177623	0.326414	0.500026
Br221	Br	0.608343	-0.550863	0.000020
Br222	Br	1.108343	-0.050863	0.500020
H223	H	0.910838	0.004629	0.196835
H224	H	1.410838	0.504629	0.696835
Br225	Br	0.711297	0.142069	0.176058
Br226	Br	1.211297	0.642069	0.676058
H227	H	0.910847	0.004629	0.335879
H228	H	1.410847	0.504629	0.835879
Br229	Br	0.936848	-0.013256	0.823995
Br230	Br	1.436848	0.486744	1.323995
H231	H	0.644452	-0.448924	0.000014
H232	H	1.144452	0.051076	0.500014
H233	H	0.944765	-0.092997	0.000022
H234	H	1.444765	0.407003	0.500022
Br235	Br	0.679373	-0.054745	0.000018
Br236	Br	1.179373	0.445255	0.500018
H237	H	0.737328	0.124193	0.803223
H238	H	1.237328	0.624193	1.303223
Br239	Br	0.977795	-0.201331	0.000008
Br240	Br	1.477795	0.298669	0.500008
Br241	Br	0.970526	-0.697583	0.000051
Br242	Br	1.470526	-0.197583	0.500051
H243	H	1.002823	-0.482062	-0.000008
H244	H	1.502823	0.017938	0.499992
H245	H	1.005029	-0.330809	0.000001
H246	H	1.505029	0.169191	0.500001
H247	H	0.737289	0.124185	0.335911
H248	H	1.237289	0.624185	0.835911
