data_functionalizedCrystal
_audit_creation_method	'MofGen! by Chris Wilmer'
_symmetry_space_group_name_H-M	'P1'
_symmetry_Int_Tables_number	1
_symmetry_cell_setting	triclinic
loop_
_symmetry_equiv_pos_as_xyz
  x,y,z
_cell_length_a	12.759395
_cell_length_b	12.759394
_cell_length_c	12.759387
_cell_angle_alpha	89.967183
_cell_angle_beta	89.981185
_cell_angle_gamma	90.016374
loop_
_atom_site_label
_atom_site_type_symbol
_atom_site_fract_x
_atom_site_fract_y
_atom_site_fract_z
Zn1	Zn	1.606250	-0.418156	-0.593999
Zn2	Zn	1.606146	-0.593877	-0.418317
Zn3	Zn	1.430554	-0.418217	-0.418336
Zn4	Zn	1.430540	-0.593798	-0.593956
O5	O	1.518372	-0.506012	-0.506152
O6	O	1.753257	-0.441473	-0.570704
O7	O	1.582815	-0.570633	-0.271298
O8	O	1.453909	-0.271188	-0.441664
O9	O	1.753180	-0.570574	-0.441631
O10	O	1.582993	-0.271143	-0.570723
O11	O	1.453808	-0.441577	-0.271312
O12	O	1.283531	-0.441501	-0.441622
O13	O	1.453887	-0.570441	-0.740983
O14	O	1.283521	-0.570500	-0.570649
O15	O	1.582980	-0.441397	-0.741014
O16	O	1.582802	-0.740887	-0.441590
O17	O	1.453785	-0.740830	-0.570631
C18	C	1.245405	-0.505999	-0.506134
C19	C	1.128628	-0.506019	-0.506151
C20	C	1.518309	-0.778979	-0.506126
C21	C	1.518378	-0.895756	-0.506151
C22	C	1.128657	-0.640563	-0.640290
C23	C	1.073810	-0.707843	-0.707362
C24	C	0.964088	-0.707856	-0.707375
C25	C	0.909211	-0.640579	-0.640310
C26	C	0.964057	-0.573299	-0.573238
C27	C	1.073782	-0.573296	-0.573230
C28	C	0.964029	-0.438751	-0.439106
C29	C	1.073751	-0.438742	-0.439086
C30	C	0.909151	-0.371474	-0.372042
C31	C	0.963998	-0.304198	-0.304962
C32	C	1.073726	-0.304189	-0.304951
C33	C	1.128597	-0.371462	-0.372014
C34	C	1.652824	-0.895763	-0.371881
C35	C	1.720074	-0.950627	-0.304758
C36	C	1.720136	-1.060348	-0.304786
C37	C	1.652942	-1.115208	-0.371947
C38	C	1.585692	-1.060344	-0.439070
C39	C	1.585636	-0.950620	-0.439032
C40	C	1.451253	-1.060338	-0.573343
C41	C	1.451185	-0.950616	-0.573311
C42	C	1.384060	-1.115198	-0.640504
C43	C	1.316803	-1.060334	-0.707623
C44	C	1.316743	-0.950606	-0.707591
C45	C	1.383935	-0.895752	-0.640434
C46	C	1.792406	-0.506026	-0.506170
C47	C	1.909182	-0.506031	-0.506178
C48	C	1.518444	-0.505903	-0.780185
C49	C	1.518474	-0.505857	-0.896962
C50	C	1.518464	-0.231979	-0.506200
C51	C	1.518503	-0.115202	-0.506221
C52	C	1.384148	-0.371462	-0.896996
C53	C	1.317004	-0.304243	-0.951873
C54	C	1.317036	-0.304205	-1.061595
C55	C	1.384216	-0.371395	-1.116441
C56	C	1.451360	-0.438614	-1.061564
C57	C	1.451323	-0.438642	-0.951840
C58	C	1.585679	-0.573013	-1.061530
C59	C	1.585654	-0.573047	-0.951809
C60	C	1.652859	-0.640203	-1.116377
C61	C	1.720010	-0.707418	-1.061500
C62	C	1.719976	-0.707453	-0.951771
C63	C	1.652798	-0.640266	-0.896931
C64	C	1.518362	-0.506044	-0.233184
C65	C	1.518535	-0.505794	-0.116408
H66	H	1.118503	-0.762617	-0.761966
C67	C	1.285849	-0.713823	-0.713284
C68	C	1.249264	-0.640563	-0.640264
H69	H	1.360308	-0.713820	-0.713270
H70	H	1.260998	-0.781586	-0.694990
H71	H	1.261066	-0.695733	-0.781118
H72	H	1.274042	-0.658658	-0.572428
H73	H	1.274127	-0.572785	-0.658552
H74	H	0.919433	-0.762636	-0.761996
C75	C	0.752052	-0.713849	-0.713361
C76	C	0.788603	-0.640591	-0.640325
H77	H	0.677593	-0.713859	-0.713361
H78	H	0.776902	-0.695756	-0.781179
H79	H	0.776859	-0.781619	-0.695060
H80	H	0.763802	-0.572820	-0.658630
H81	H	0.763742	-0.658678	-0.572492
H82	H	1.118376	-0.249393	-0.250340
C83	C	1.257211	-1.228527	-0.767294
C84	C	1.242949	-1.120636	-0.781438
H85	H	1.211610	-1.265756	-0.812860
H86	H	1.327797	-1.246423	-0.782736
H87	H	1.241880	-1.246574	-0.696693
H88	H	1.258288	-1.102588	-0.852038
H89	H	1.172347	-1.102733	-0.766003
H90	H	1.217938	-0.371464	-0.372008
H91	H	1.774698	-0.762123	-1.106164
H92	H	0.819810	-0.371485	-0.372061
C93	C	1.725926	-0.738589	-0.298721
C94	C	1.652752	-0.775155	-0.371842
H95	H	1.725885	-0.664130	-0.298701
H96	H	1.707796	-0.763485	-0.230927
H97	H	1.793728	-0.763341	-0.316956
H98	H	1.584949	-0.750410	-0.353602
H99	H	1.670876	-0.750248	-0.439649
H100	H	0.919308	-0.249421	-0.250369
H101	H	1.774785	-0.905950	-0.250078
H102	H	1.262360	-0.249471	-1.106276
H103	H	1.774902	-1.105018	-0.250135
H104	H	1.774656	-0.762187	-0.907096
H105	H	1.261984	-0.905941	-0.762254
H106	H	1.262305	-0.249541	-0.907205
H107	H	1.653007	-1.204549	-0.371973
C108	C	1.284154	-0.398275	-0.739804
C109	C	1.384119	-0.371501	-0.776388
H110	H	1.284139	-0.398305	-0.665346
H111	H	1.234564	-0.348626	-0.764631
H112	H	1.265971	-0.466064	-0.764613
H113	H	1.402298	-0.303709	-0.751585
H114	H	1.433725	-0.421153	-0.751550
H115	H	1.384119	-1.204539	-0.640527
H116	H	1.383886	-0.806411	-0.640394
H117	H	1.384226	-0.371368	-1.205783
H118	H	1.652875	-0.640173	-1.205718
H119	H	1.652768	-0.640284	-0.807590
