data_functionalizedCrystal
_audit_creation_method	'MofGen! by Chris Wilmer'
_symmetry_space_group_name_H-M	'P1'
_symmetry_Int_Tables_number	1
_symmetry_cell_setting	triclinic
loop_
_symmetry_equiv_pos_as_xyz
  x,y,z
_cell_length_a	12.759401
_cell_length_b	15.299816
_cell_length_c	12.759393
_cell_angle_alpha	80.349000
_cell_angle_beta	90.020938
_cell_angle_gamma	80.352053
loop_
_atom_site_label
_atom_site_type_symbol
_atom_site_fract_x
_atom_site_fract_y
_atom_site_fract_z
Zn1	Zn	1.678551	-0.358974	0.666432
Zn2	Zn	2.178551	0.141026	1.166432
Zn3	Zn	1.708816	-0.509814	0.521179
Zn4	Zn	2.208816	-0.009814	1.021179
Zn5	Zn	1.502860	-0.359022	0.490777
Zn6	Zn	2.002860	0.140978	0.990777
Zn7	Zn	1.533203	-0.509751	0.696804
Zn8	Zn	2.033203	-0.009751	1.196804
O9	O	1.605858	-0.434390	0.593798
O10	O	2.105858	0.065610	1.093798
O11	O	1.829588	-0.378989	0.647177
O12	O	2.329588	0.121011	1.147177
O13	O	1.681463	-0.489858	0.370135
O14	O	2.181463	0.010142	0.870135
O15	O	1.500801	-0.232808	0.488643
O16	O	2.000801	0.267192	0.988643
O17	O	1.851824	-0.489811	0.540460
O18	O	2.351824	0.010189	1.040460
O19	O	1.629881	-0.232772	0.617696
O20	O	2.129881	0.267228	1.117696
O21	O	1.530147	-0.379071	0.347798
O22	O	2.030147	0.120929	0.847798
O23	O	1.359863	-0.379010	0.518094
O24	O	1.859863	0.120990	1.018094
O25	O	1.552517	-0.489704	0.839787
O26	O	2.052517	0.010296	1.339787
O27	O	1.382156	-0.489750	0.669461
O28	O	1.882156	0.010250	1.169461
O29	O	1.659303	-0.378928	0.817473
O30	O	2.159303	0.121072	1.317473
O31	O	1.710886	-0.636014	0.569911
O32	O	2.210886	-0.136014	1.069911
O33	O	1.581864	-0.635967	0.698941
O34	O	2.081864	-0.135967	1.198941
C35	C	1.332888	-0.434379	0.593775
C36	C	1.832888	0.065621	1.093775
C37	C	1.216115	-0.434396	0.593794
C38	C	1.716115	0.065604	1.093794
C39	C	1.172906	-0.492146	0.672523
C40	C	1.672906	0.007854	1.172523
C41	C	1.063183	-0.492150	0.672545
C42	C	1.563183	0.007850	1.172545
C43	C	1.039886	-0.376650	0.515099
C44	C	1.539886	0.123350	1.015099
C45	C	1.149607	-0.376643	0.515083
C46	C	1.649607	0.123357	1.015083
C47	C	1.652980	-0.668715	0.641044
C48	C	2.152980	-0.168715	1.141044
C49	C	1.673235	-0.768960	0.661291
C50	C	2.173235	-0.268960	1.161291
C51	C	1.461779	-1.051906	0.449446
C52	C	1.961779	-0.551906	0.949446
C53	C	1.442743	-0.957721	0.430426
C54	C	1.942743	-0.457721	0.930426
C55	C	1.500364	-0.910526	0.488140
C56	C	2.000364	-0.410526	0.988140
C57	C	1.577025	-0.957525	0.564879
C58	C	2.077025	-0.457525	1.064879
C59	C	1.596058	-1.051720	0.583907
C60	C	2.096058	-0.551720	1.083907
C61	C	1.634643	-0.910340	0.622601
C62	C	2.134643	-0.410340	1.122601
C63	C	1.711304	-0.957339	0.699339
C64	C	2.211304	-0.457339	1.199339
C65	C	1.730333	-1.051525	0.718364
C66	C	2.230333	-0.551525	1.218364
C67	C	1.672712	-1.098719	0.660649
C68	C	2.172712	-0.598719	1.160649
C69	C	1.615611	-0.816145	0.603572
C70	C	2.115611	-0.316145	1.103572
C71	C	1.749890	-0.815959	0.738033
C72	C	2.249890	-0.315959	1.238033
C73	C	1.768926	-0.910145	0.757054
C74	C	2.268926	-0.410145	1.257054
C75	C	1.879893	-0.434402	0.593822
C76	C	2.379893	0.065598	1.093822
C77	C	1.996671	-0.434407	0.593832
C78	C	2.496671	0.065593	1.093832
C79	C	1.605919	-0.434304	0.867814
C80	C	2.105919	0.065696	1.367814
C81	C	1.605945	-0.434267	0.984583
C82	C	2.105945	0.065733	1.484583
C83	C	1.558580	-0.199151	0.546391
C84	C	2.058580	0.300849	1.046391
C85	C	1.538433	-0.098905	0.526189
C86	C	2.038433	0.401095	1.026189
C87	C	1.605844	-0.434411	0.320835
C88	C	2.105844	0.065589	0.820835
C89	C	1.605970	-0.434194	0.204015
C90	C	2.105970	0.065806	0.704015
C91	C	1.661552	-0.376577	1.027826
C92	C	2.161552	0.123423	1.527826
C93	C	1.661562	-0.376538	1.137542
C94	C	2.161562	0.123462	1.637542
C95	C	1.550357	-0.491887	1.160765
C96	C	2.050357	0.008113	1.660765
C97	C	1.550341	-0.491920	1.051050
C98	C	2.050341	0.008080	1.551050
H99	H	1.028008	-0.539174	0.736655
H100	H	1.528008	-0.039174	1.236655
H101	H	1.184786	-0.329610	0.450971
H102	H	1.684786	0.170390	0.950971
H103	H	1.553193	-0.777887	0.541091
H104	H	2.053193	-0.277887	1.041091
O105	O	0.968160	-0.314390	0.430176
O106	O	1.468160	0.185610	0.930176
H107	H	0.884607	-0.324111	0.443397
H108	H	1.384607	0.175889	0.943397
H109	H	1.706825	-0.329629	0.973711
H110	H	2.206825	0.170371	1.473711
O111	O	1.851605	-0.960840	0.839824
O112	O	2.351605	-0.460840	1.339824
H113	H	1.829888	-0.942716	0.918604
H114	H	2.329888	-0.442716	1.418604
H115	H	1.505089	-0.538828	1.214895
H116	H	2.005089	-0.038828	1.714895
O117	O	1.479852	-0.808940	0.467617
O118	O	1.979852	-0.308940	0.967617
H119	H	1.416875	-0.784187	0.404552
H120	H	1.916875	-0.284187	0.904552
H121	H	1.505052	-0.538898	1.015841
H122	H	2.005052	-0.038898	1.515841
H123	H	1.706841	-0.329559	1.172744
H124	H	2.206841	0.170441	1.672744
O125	O	1.360081	-0.907027	0.347648
O126	O	1.860081	-0.407027	0.847648
H127	H	1.323222	-0.955666	0.310701
H128	H	1.823222	-0.455666	0.810701
H129	H	1.796808	-0.777534	0.785031
H130	H	2.296808	-0.277534	1.285031
O131	O	1.244643	-0.554423	0.757424
O132	O	1.744643	-0.054423	1.257424
H133	H	1.196157	-0.594573	0.812180
H134	H	1.696157	-0.094573	1.312180
O135	O	1.399646	-1.102804	0.387190
O136	O	1.899646	-0.602804	0.887190
H137	H	1.425770	-1.176195	0.413307
H138	H	1.925770	-0.676195	0.913307
H139	H	1.792751	-1.089789	0.780854
H140	H	2.292751	-0.589789	1.280854
O141	O	1.693247	-1.200309	0.681169
O142	O	2.193247	-0.700309	1.181169
H143	H	1.619022	-1.225191	0.707363
H144	H	2.119022	-0.725191	1.207363
