data_functionalizedCrystal
_audit_creation_method	'MofGen! by Chris Wilmer'
_symmetry_space_group_name_H-M	'P1'
_symmetry_Int_Tables_number	1
_symmetry_cell_setting	triclinic
loop_
_symmetry_equiv_pos_as_xyz
  x,y,z
_cell_length_a	13.897448
_cell_length_b	21.395364
_cell_length_c	21.395355
_cell_angle_alpha	90.025298
_cell_angle_beta	89.984371
_cell_angle_gamma	89.965607
loop_
_atom_site_label
_atom_site_type_symbol
_atom_site_fract_x
_atom_site_fract_y
_atom_site_fract_z
Zn1	Zn	-0.383697	-0.957916	-0.354287
Zn2	Zn	0.116303	-0.457916	0.145713
Zn3	Zn	-0.544976	-0.957842	-0.249514
Zn4	Zn	-0.044976	-0.457842	0.250486
Zn5	Zn	-0.383744	-0.853131	-0.249522
Zn6	Zn	0.116256	-0.353131	0.250478
Zn7	Zn	-0.544998	-0.853124	-0.354253
Zn8	Zn	-0.044998	-0.353124	0.145747
O9	O	-0.464354	-0.905503	-0.301894
O10	O	0.035646	-0.405503	0.198106
O11	O	-0.405062	-1.045584	-0.340399
O12	O	0.094938	-0.545584	0.159601
O13	O	-0.523599	-0.943924	-0.161837
O14	O	-0.023599	-0.443924	0.338163
O15	O	-0.248756	-0.867065	-0.263436
O16	O	0.251244	-0.367065	0.236564
O17	O	-0.523553	-1.045530	-0.263423
O18	O	-0.023553	-0.545530	0.236577
O19	O	-0.248721	-0.944050	-0.340406
O20	O	0.251279	-0.444050	0.159594
O21	O	-0.405142	-0.866993	-0.161843
O22	O	0.094858	-0.366993	0.338157
O23	O	-0.405164	-0.765452	-0.263404
O24	O	0.094836	-0.265452	0.236596
O25	O	-0.523591	-0.867053	-0.441935
O26	O	-0.023591	-0.367053	0.058065
O27	O	-0.523637	-0.765447	-0.340350
O28	O	-0.023637	-0.265447	0.159650
O29	O	-0.405083	-0.944043	-0.441960
O30	O	0.094917	-0.444043	0.058040
O31	O	-0.679961	-0.943917	-0.263391
O32	O	-0.179961	-0.443917	0.236609
O33	O	-0.679977	-0.866981	-0.340342
O34	O	-0.179977	-0.366981	0.159658
C35	C	-0.464408	-0.742716	-0.301874
C36	C	0.035592	-0.242716	0.198126
C37	C	-0.464455	-0.673074	-0.301881
C38	C	0.035545	-0.173074	0.198119
C39	C	-0.402859	-0.640412	-0.342023
C40	C	0.097141	-0.140412	0.157977
C41	C	-0.402837	-0.574976	-0.342025
C42	C	0.097163	-0.074976	0.157975
C43	C	-0.464427	-0.542206	-0.301890
C44	C	0.035573	-0.042206	0.198110
C45	C	-0.526027	-0.574876	-0.261740
C46	C	-0.026027	-0.074876	0.238260
C47	C	-0.526041	-0.640311	-0.261735
C48	C	-0.026041	-0.140311	0.238265
C49	C	-0.551299	-0.438494	-0.296854
C50	C	-0.051299	0.061506	0.203146
C51	C	-0.551286	-0.373061	-0.296864
C52	C	-0.051286	0.126939	0.203136
C53	C	-0.464384	-0.340385	-0.301902
C54	C	0.035616	0.159615	0.198098
C55	C	-0.377490	-0.373150	-0.306944
C56	C	0.122510	0.126850	0.193056
C57	C	-0.377504	-0.438584	-0.306939
C58	C	0.122496	0.061416	0.193061
C59	C	-0.464418	-0.471254	-0.301891
C60	C	0.035582	0.028746	0.198109
C61	C	-0.402758	-0.236770	-0.342048
C62	C	0.097242	0.263230	0.157952
C63	C	-0.402734	-0.171334	-0.342045
C64	C	0.097266	0.328666	0.157955
C65	C	-0.525933	-0.171235	-0.261764
C66	C	-0.025933	0.328765	0.238236
C67	C	-0.525949	-0.236670	-0.261763
C68	C	-0.025949	0.263330	0.238237
C69	C	-0.464362	-0.269434	-0.301909
C70	C	0.035638	0.230566	0.198091
C71	C	-0.714968	-0.905457	-0.301876
C72	C	-0.214968	-0.405457	0.198124
C73	C	-0.822182	-0.905495	-0.301889
C74	C	-0.322182	-0.405495	0.198111
C75	C	-1.018477	-0.905561	-0.301928
C76	C	-0.518477	-0.405561	0.198072
C77	C	-0.909245	-0.905523	-0.301908
C78	C	-0.409245	-0.405523	0.198092
C79	C	-0.212761	-0.905566	-0.301926
C80	C	0.287239	-0.405566	0.198074
C81	C	-0.105547	-0.905593	-0.301940
C82	C	0.394453	-0.405593	0.198060
C83	C	-0.464334	-0.905555	-0.465317
C84	C	0.035666	-0.405555	0.034683
C85	C	-0.464326	-0.905577	-0.534959
C86	C	0.035674	-0.405577	-0.034959
C87	C	-0.464312	-0.068926	-0.301911
C88	C	0.035688	0.431074	0.198089
C89	C	-0.464324	-0.138568	-0.301910
C90	C	0.035676	0.361432	0.198090
C91	C	-0.402616	-0.945664	-0.567686
C92	C	0.097384	-0.445664	-0.067686
C93	C	-0.402575	-0.945664	-0.633121
C94	C	0.097425	-0.445664	-0.133121
C95	C	-0.464260	-0.905582	-0.665827
C96	C	0.035740	-0.405582	-0.165827
C97	C	-0.525974	-0.865487	-0.633092
C98	C	-0.025974	-0.365487	-0.133092
C99	C	-0.526007	-0.865485	-0.567658
C100	C	-0.026007	-0.365485	-0.067658
C101	C	-0.551115	-0.900619	-0.769495
C102	C	-0.051115	-0.400619	-0.269495
C103	C	-0.551084	-0.900626	-0.834928
C104	C	-0.051084	-0.400626	-0.334928
C105	C	-0.464158	-0.905586	-0.867648
C106	C	0.035842	-0.405586	-0.367648
C107	C	-0.377262	-0.910553	-0.834926
C108	C	0.122738	-0.410553	-0.334926
C109	C	-0.377295	-0.910550	-0.769492
C110	C	0.122705	-0.410550	-0.269492
C111	C	-0.464231	-0.905580	-0.736779
C112	C	0.035769	-0.405580	-0.236779
C113	C	-0.402399	-0.945674	-0.971327
C114	C	0.097601	-0.445674	-0.471327
C115	C	-0.402356	-0.945669	-1.036764
C116	C	0.097644	-0.445669	-0.536764
C117	C	-0.525763	-0.865496	-1.036734
C118	C	-0.025763	-0.365496	-0.536734
C119	C	-0.525798	-0.865498	-0.971299
C120	C	-0.025798	-0.365498	-0.471299
C121	C	-0.464117	-0.905591	-0.938599
C122	C	0.035883	-0.405591	-0.438599
C123	C	-0.464304	-0.905487	-0.139106
C124	C	0.035696	-0.405487	0.360894
C125	C	-0.464040	-0.905587	-0.069466
C126	C	0.035960	-0.405587	0.430534
H127	H	-0.622040	-0.346389	-0.292761
H128	H	-0.122040	0.153611	0.207239
H129	H	-0.352710	-0.667084	-0.374713
H130	H	0.147290	-0.167084	0.125287
H131	H	-0.576081	-0.144554	-0.229085
H132	H	-0.076081	0.355446	0.270915
H133	H	-0.576111	-0.263264	-0.229077
H134	H	-0.076111	0.236736	0.270923
H135	H	-0.576257	-0.832838	-0.541012
H136	H	-0.076257	-0.332838	-0.041012
H137	H	-0.352673	-0.548377	-0.374713
H138	H	0.147327	-0.048377	0.125287
H139	H	-0.306753	-0.465259	-0.311042
H140	H	0.193247	0.034741	0.188958
H141	H	-0.352169	-0.978317	-0.944702
H142	H	0.147831	-0.478317	-0.444702
H143	H	-0.306726	-0.346546	-0.311046
H144	H	0.193274	0.153454	0.188954
H145	H	-0.575979	-0.832855	-1.063363
H146	H	-0.075979	-0.332855	-0.563363
H147	H	-0.306479	-0.914593	-0.861565
H148	H	0.193521	-0.414593	-0.361565
H149	H	-0.352099	-0.978312	-1.063409
H150	H	0.147901	-0.478312	-0.563409
H151	H	-0.621840	-0.896586	-0.861565
H152	H	-0.121840	-0.396586	-0.361565
H153	H	-0.622071	-0.465094	-0.292751
H154	H	-0.122071	0.034906	0.207249
H155	H	-0.352605	-0.263448	-0.374733
H156	H	0.147395	0.236552	0.125267
H157	H	-0.576174	-0.548191	-0.229061
H158	H	-0.076174	-0.048191	0.270939
H159	H	-0.352390	-0.978310	-0.541066
H160	H	0.147610	-0.478310	-0.041066
H161	H	-0.576202	-0.666904	-0.229045
H162	H	-0.076202	-0.166904	0.270955
H163	H	-0.621882	-0.896412	-0.742861
H164	H	-0.121882	-0.396412	-0.242861
H165	H	-0.352318	-0.978306	-0.659772
H166	H	0.147682	-0.478306	-0.159772
H167	H	-0.576196	-0.832851	-0.659726
H168	H	-0.076196	-0.332851	-0.159726
H169	H	-0.306540	-0.914592	-0.742853
H170	H	0.193460	-0.414592	-0.242853
H171	H	-0.352569	-0.144741	-0.374734
H172	H	0.147431	0.355259	0.125266
H173	H	-0.576054	-0.832859	-0.944652
H174	H	-0.076054	-0.332859	-0.444652
