data_functionalizedCrystal
_audit_creation_method	'MofGen! by Chris Wilmer'
_symmetry_space_group_name_H-M	'P1'
_symmetry_Int_Tables_number	1
_symmetry_cell_setting	triclinic
loop_
_symmetry_equiv_pos_as_xyz
  x,y,z
_cell_length_a	25.639242
_cell_length_b	29.839131
_cell_length_c	25.639233
_cell_angle_alpha	90.027239
_cell_angle_beta	90.022166
_cell_angle_gamma	90.030754
loop_
_atom_site_label
_atom_site_type_symbol
_atom_site_fract_x
_atom_site_fract_y
_atom_site_fract_z
Zn1	Zn	0.799238	-0.178962	0.295711
Zn2	Zn	0.799166	-0.254076	0.208263
Zn3	Zn	0.711814	-0.178955	0.208275
Zn4	Zn	0.711764	-0.254059	0.295653
O5	O	0.755496	-0.216513	0.251976
O6	O	0.872393	-0.188935	0.284130
O7	O	0.787570	-0.244115	0.135099
O8	O	0.723461	-0.116089	0.219904
O9	O	0.872341	-0.244122	0.219882
O10	O	0.787691	-0.116094	0.284143
O11	O	0.723392	-0.188924	0.135109
O12	O	0.638642	-0.188908	0.219847
O13	O	0.723377	-0.244093	0.368826
O14	O	0.638606	-0.244087	0.284043
O15	O	0.787643	-0.188919	0.368869
O16	O	0.787522	-0.316941	0.219825
O17	O	0.723308	-0.316929	0.284030
C18	C	0.619653	-0.216495	0.251940
C19	C	0.561539	-0.216499	0.251937
C20	C	0.201166	-0.245293	0.285371
C21	C	0.146561	-0.245295	0.285379
O22	O	0.118316	-0.269755	0.313775
N23	N	0.119256	-0.216525	0.252010
C24	C	0.146559	-0.187748	0.218634
O25	O	0.118320	-0.163276	0.190252
C26	C	0.201162	-0.187743	0.218629
C27	C	0.228464	-0.216518	0.251996
C28	C	0.228468	-0.274065	0.318736
C29	C	0.283069	-0.274063	0.318727
C30	C	0.310367	-0.245288	0.285352
C31	C	0.283065	-0.216516	0.251987
C32	C	0.228463	-0.158963	0.185256
C33	C	0.283070	-0.158961	0.185254
C34	C	0.310372	-0.187736	0.218621
C35	C	0.364964	-0.187739	0.218604
N36	N	0.392269	-0.216509	0.251973
C37	C	0.364970	-0.245283	0.285347
C38	C	0.031888	-0.187759	0.218648
C39	C	-0.022714	-0.187766	0.218650
C40	C	-0.022708	-0.245313	0.285396
C41	C	0.031896	-0.245308	0.285391
C42	C	0.059193	-0.216529	0.252017
C43	C	0.479635	-0.245277	0.285325
C44	C	0.534241	-0.245273	0.285312
C45	C	0.534229	-0.187724	0.218568
C46	C	0.479629	-0.187729	0.218580
C47	C	0.452333	-0.216507	0.251962
O48	O	0.393244	-0.163290	0.190224
O49	O	0.393216	-0.269746	0.313729
C50	C	0.755416	-0.333236	0.251931
C51	C	0.755430	-0.383170	0.251930
C52	C	0.788933	-0.692781	0.285472
C53	C	0.788989	-0.880454	0.285504
O54	O	0.817397	-0.904691	0.313990
N55	N	0.755584	-0.903955	0.252034
C56	C	0.722160	-0.880535	0.218556
O57	O	0.693745	-0.904830	0.190092
C58	C	0.722101	-0.692863	0.218527
C59	C	0.755512	-0.669364	0.251996
C60	C	0.822341	-0.669282	0.318939
C61	C	0.822328	-0.622367	0.318928
C62	C	0.788908	-0.598950	0.285452
C63	C	0.755500	-0.622449	0.251986
C64	C	0.688675	-0.669444	0.185052
C65	C	0.688662	-0.622522	0.185049
C66	C	0.722073	-0.599024	0.218518
C67	C	0.722067	-0.552116	0.218499
N68	N	0.755472	-0.528615	0.251969
C69	C	0.788892	-0.552032	0.285446
C70	C	0.722194	-0.979066	0.218572
C71	C	0.722210	-1.025983	0.218578
C72	C	0.789038	-1.025899	0.285527
C73	C	0.789025	-0.978981	0.285518
C74	C	0.755599	-0.955565	0.252042
C75	C	0.788864	-0.453506	0.285421
C76	C	0.788850	-0.406587	0.285407
C77	C	0.722020	-0.406675	0.218460
C78	C	0.722035	-0.453591	0.218472
C79	C	0.755459	-0.477005	0.251957
O80	O	0.693670	-0.527850	0.190032
O81	O	0.817296	-0.527729	0.313913
C82	C	0.788945	-0.739696	0.285483
C83	C	0.755537	-0.763195	0.252016
C84	C	0.722117	-0.739778	0.218540
C85	C	0.755553	-0.810113	0.252023
C86	C	0.788973	-0.833530	0.285499
C87	C	0.822378	-0.810029	0.318969
C88	C	0.822366	-0.763113	0.318959
C89	C	0.688712	-0.763279	0.185070
C90	C	0.688727	-0.810195	0.185082
C91	C	0.722148	-0.833612	0.218559
C92	C	0.891869	-0.216531	0.252011
C93	C	0.949983	-0.216539	0.252027
C94	C	0.755512	-0.216505	0.388349
C95	C	0.755520	-0.216502	0.446463
C96	C	0.755590	-0.099335	0.252031
C97	C	0.755630	-0.049400	0.252055
C98	C	0.755509	-0.216488	0.116133
C99	C	0.755603	-0.216365	0.058019
C100	C	0.789025	-0.187687	0.806854
C101	C	0.789032	-0.187675	0.861458
O102	O	0.817478	-0.163229	0.889719
N103	N	0.755577	-0.216396	0.888745
C104	C	0.722110	-0.245129	0.861425
O105	O	0.693655	-0.269558	0.889649
C106	C	0.722101	-0.245139	0.806822
C107	C	0.755562	-0.216419	0.779538
C108	C	0.822483	-0.158969	0.779570
C109	C	0.822477	-0.158982	0.724969
C110	C	0.789014	-0.187714	0.697653
C111	C	0.755556	-0.216432	0.724937
C112	C	0.688632	-0.273869	0.779503
C113	C	0.688626	-0.273876	0.724896
C114	C	0.722087	-0.245156	0.697611
C115	C	0.722087	-0.245176	0.643020
N116	N	0.755542	-0.216455	0.615733
C117	C	0.789005	-0.187723	0.643050
C118	C	0.722130	-0.245106	0.976096
C119	C	0.722141	-0.245099	1.030698
C120	C	0.789063	-0.187644	1.030728
C121	C	0.789054	-0.187653	0.976124
C122	C	0.755585	-0.216384	0.948809
C123	C	0.788990	-0.187753	0.528384
C124	C	0.788983	-0.187770	0.473779
C125	C	0.722060	-0.245223	0.473754
C126	C	0.722069	-0.245208	0.528355
C127	C	0.755536	-0.216470	0.555669
O128	O	0.693654	-0.269609	0.614725
O129	O	0.817451	-0.163295	0.614819
H130	H	0.457418	-0.268709	0.312510
C131	C	0.825809	-0.156142	0.558421
N132	N	0.853543	-0.132334	0.581045
H133	H	0.206243	-0.135532	0.158083
C134	C	0.825798	-1.051666	0.322355
N135	N	0.853481	-1.071076	0.350095
H136	H	0.305293	-0.135522	0.158079
C137	C	0.061910	-0.156103	0.181926
N138	N	0.084520	-0.132260	0.154266
C139	C	0.685249	-0.276824	0.443696
N140	N	0.657520	-0.300623	0.421054
H141	H	0.849723	-0.135594	0.702759
C142	C	0.825791	-0.156172	0.443770
N143	N	0.853513	-0.132372	0.421168
H144	H	0.694828	-0.268599	0.550571
C145	C	0.564270	-0.276929	0.322021
N146	N	0.586886	-0.300771	0.349670
H147	H	0.457398	-0.164299	0.191408
C148	C	0.564268	-0.156068	0.181864
N149	N	0.586895	-0.132221	0.154223
H150	H	0.661385	-0.297256	0.801708
C151	C	0.859121	-0.737271	0.355777
N152	N	0.886808	-0.717809	0.383510
C153	C	0.825608	-0.380741	0.322225
N154	N	0.853293	-0.361276	0.349956
H155	H	0.849592	-0.829103	0.346225
H156	H	0.305293	-0.297494	0.345899
H157	H	0.816300	-0.164266	0.953913
C158	C	0.651970	-0.836038	0.148261
N159	N	0.624281	-0.855501	0.120532
C160	C	0.651938	-0.737527	0.148247
N161	N	0.624238	-0.718133	0.120510
C162	C	0.198448	-0.305727	0.355448
N163	N	0.175841	-0.329581	0.383097
C164	C	0.825777	-0.953137	0.322338
N165	N	0.853460	-0.933673	0.350073
H166	H	0.816077	-0.472565	0.312692
C167	C	-0.052741	-0.156113	0.181940
N168	N	-0.075354	-0.132269	0.154292
C169	C	0.685315	-0.276718	0.946054
N170	N	0.657585	-0.300529	0.923429
C171	C	0.651808	-0.305484	0.694852
N172	N	0.624078	-0.329293	0.672225
C173	C	0.685285	-0.479440	0.181652
N174	N	0.657599	-0.498906	0.153923
H175	H	0.849533	-0.603237	0.346183
C176	C	0.859301	-0.127361	0.809609
N177	N	0.887037	-0.103554	0.832231
C178	C	0.825870	-0.156035	1.060786
N179	N	0.853591	-0.132229	1.083428
H180	H	0.054121	-0.268739	0.312562
C181	C	0.685459	-1.051827	0.181756
N182	N	0.657774	-1.071290	0.154023
C183	C	0.685415	-0.953314	0.181749
N184	N	0.657712	-0.933920	0.154014
C185	C	0.651891	-0.596768	0.148221
N186	N	0.624196	-0.577370	0.120481
H187	H	-0.044944	-0.268742	0.312573
C188	C	0.685257	-0.380908	0.181640
N189	N	0.657563	-0.361498	0.153910
H190	H	0.849555	-0.688343	0.346202
C191	C	0.685336	-0.276696	1.060705
N192	N	0.657610	-0.300495	1.083304
H193	H	0.661468	-0.688568	0.157798
