data_functionalizedCrystal
_audit_creation_method	'MofGen! by Chris Wilmer'
_symmetry_space_group_name_H-M	'P1'
_symmetry_Int_Tables_number	1
_symmetry_cell_setting	triclinic
loop_
_symmetry_equiv_pos_as_xyz
  x,y,z
_cell_length_a	19.077105
_cell_length_b	12.759400
_cell_length_c	19.076919
_cell_angle_alpha	92.275542
_cell_angle_beta	90.076224
_cell_angle_gamma	87.711155
loop_
_atom_site_label
_atom_site_type_symbol
_atom_site_fract_x
_atom_site_fract_y
_atom_site_fract_z
Zn1	Zn	1.058328	-0.508276	-0.440440
Zn2	Zn	1.558328	-0.008276	0.059560
Zn3	Zn	1.062987	-0.677203	-0.322941
Zn4	Zn	1.562987	-0.177203	0.177059
Zn5	Zn	0.945544	-0.494202	-0.318233
Zn6	Zn	1.445544	0.005798	0.181767
Zn7	Zn	0.940808	-0.676570	-0.435693
Zn8	Zn	1.440808	-0.176570	0.064307
O9	O	1.001917	-0.589063	-0.379327
O10	O	1.501917	-0.089063	0.120673
O11	O	1.157278	-0.536840	-0.428810
O12	O	1.657278	-0.036840	0.071190
O13	O	1.051339	-0.647303	-0.223985
O14	O	1.551339	-0.147303	0.276015
O15	O	0.960537	-0.349051	-0.334460
O16	O	1.460537	0.150949	0.165540
O17	O	1.160701	-0.660950	-0.342484
O18	O	1.660701	-0.160950	0.157516
O19	O	1.043399	-0.359391	-0.424245
O20	O	1.543399	0.140609	0.075755
O21	O	0.965055	-0.512852	-0.220526
O22	O	1.465055	-0.012852	0.279474
O23	O	0.846583	-0.512238	-0.329857
O24	O	1.346583	-0.012238	0.170143
O25	O	0.952466	-0.659870	-0.534655
O26	O	1.452466	-0.159870	-0.034655
O27	O	0.843104	-0.646223	-0.416155
O28	O	1.343104	-0.146223	0.083845
O29	O	1.038807	-0.536226	-0.538142
O30	O	1.538807	-0.036226	-0.038142
O31	O	1.046747	-0.824137	-0.337881
O32	O	1.546747	-0.324137	0.162119
O33	O	0.956984	-0.823672	-0.420720
O34	O	1.456984	-0.323672	0.079280
C35	C	0.819347	-0.577635	-0.371981
C36	C	1.319347	-0.077635	0.128019
C37	C	0.741242	-0.572773	-0.368855
C38	C	1.241242	-0.072773	0.131145
C39	C	0.702758	-0.640344	-0.412246
C40	C	1.202758	-0.140344	0.087754
C41	C	0.629371	-0.635762	-0.409312
C42	C	1.129371	-0.135762	0.090688
C43	C	0.594468	-0.563612	-0.362983
C44	C	1.094468	-0.063612	0.137017
C45	C	0.632957	-0.496033	-0.319590
C46	C	1.132957	0.003967	0.180410
C47	C	0.706344	-0.500611	-0.322528
C48	C	1.206344	-0.000611	0.177472
C49	C	0.375179	-0.542424	-0.349390
C50	C	0.875179	-0.042424	0.150610
C51	C	0.301787	-0.537853	-0.346453
C52	C	0.801787	-0.037853	0.153547
C53	C	0.298205	-0.677581	-0.436177
C54	C	0.798205	-0.177581	0.063823
C55	C	0.371593	-0.682157	-0.439108
C56	C	0.871593	-0.182157	0.060892
C57	C	0.410076	-0.614575	-0.395717
C58	C	0.910076	-0.114575	0.104283
N59	N	0.519454	-0.558929	-0.359982
N60	N	1.019454	-0.058929	0.140018
N61	N	0.485089	-0.619254	-0.398723
N62	N	0.985089	-0.119254	0.101277
C63	C	1.001876	-0.862027	-0.379313
C64	C	1.501876	-0.362027	0.120687
C65	C	1.001921	-0.978807	-0.379333
C66	C	1.501921	-0.478807	0.120667
C67	C	1.045046	-1.038965	-0.426121
C68	C	1.545046	-0.538965	0.073879
C69	C	1.045085	-1.148692	-0.426142
C70	C	1.545085	-0.648692	0.073858
C71	C	0.958872	-1.138095	-0.332579
C72	C	1.458872	-0.638095	0.167421
C73	C	0.958830	-1.028370	-0.332563
C74	C	1.458830	-0.528370	0.167437
C75	C	1.066869	-1.304878	-0.510064
C76	C	1.566869	-0.804878	-0.010064
C77	C	1.110005	-1.365039	-0.556847
C78	C	1.610005	-0.865039	-0.056847
C79	C	1.178114	-1.334240	-0.570443
C80	C	1.678114	-0.834240	-0.070443
C81	C	1.203101	-1.243281	-0.537247
C82	C	1.703101	-0.743281	-0.037247
C83	C	1.159969	-1.183126	-0.490459
C84	C	1.659969	-0.683126	0.009541
C85	C	1.091850	-1.213924	-0.476875
C86	C	1.591850	-0.713924	0.023125
C87	C	0.937054	-0.872182	-0.248640
C88	C	1.437054	-0.372182	0.251360
C89	C	0.893925	-0.812024	-0.201848
C90	C	1.393925	-0.312024	0.298152
C91	C	0.825815	-0.842821	-0.188245
C92	C	1.325815	-0.342821	0.311755
C93	C	0.800831	-0.933783	-0.221429
C94	C	1.300831	-0.433783	0.278571
C95	C	0.843960	-0.993941	-0.268221
C96	C	1.343960	-0.493941	0.231779
C97	C	0.912069	-0.963136	-0.281825
C98	C	1.412069	-0.463136	0.218175
C99	C	1.185199	-0.600536	-0.386702
C100	C	1.685199	-0.100536	0.113298
C101	C	1.263303	-0.605425	-0.389845
C102	C	1.763303	-0.105425	0.110155
C103	C	0.994588	-0.599547	-0.562607
C104	C	1.494588	-0.099547	-0.062607
C105	C	0.991466	-0.604015	-0.640711
C106	C	1.491466	-0.104015	-0.140711
C107	C	1.001976	-0.315035	-0.379357
C108	C	1.501976	0.184965	0.120643
C109	C	1.002002	-0.198260	-0.379370
C110	C	1.502002	0.301740	0.120630
C111	C	1.034949	-0.541742	-0.679221
C112	C	1.534949	-0.041742	-0.179221
C113	C	1.032006	-0.545935	-0.752607
C114	C	1.532006	-0.045935	-0.252607
C115	C	0.985583	-0.612408	-0.787482
C116	C	1.485583	-0.112408	-0.287482
C117	C	0.942095	-0.674684	-0.748966
C118	C	1.442095	-0.174684	-0.248966
C119	C	0.945034	-0.670484	-0.675582
C120	C	1.445034	-0.170484	-0.175582
C121	C	0.971967	-0.631866	-1.006763
C122	C	1.471967	-0.131866	-0.506763
C123	C	0.969032	-0.636064	-1.080154
C124	C	1.469032	-0.136064	-0.580154
C125	C	1.058944	-0.507313	-1.083789
C126	C	1.558944	-0.007313	-0.583789
C127	C	1.061882	-0.503124	-1.010402
C128	C	1.561882	-0.003124	-0.510402
C129	C	1.018391	-0.565395	-0.971894
C130	C	1.518391	-0.065395	-0.471894
N131	N	0.982575	-0.616699	-0.862494
N132	N	1.482575	-0.116699	-0.362494
N133	N	1.021396	-0.561099	-0.896883
N134	N	1.521396	-0.061099	-0.396883
C135	C	1.009257	-0.578546	-0.196761
C136	C	1.509257	-0.078546	0.303239
C137	C	1.012516	-0.573790	-0.118663
C138	C	1.512516	-0.073790	0.381337
H139	H	0.731171	-0.699100	-0.449970
H140	H	1.231171	-0.199100	0.050030
H141	H	1.072754	-0.487616	-0.650831
H142	H	1.572754	0.012384	-0.150831
H143	H	0.914275	-0.737962	-0.174825
H144	H	1.414275	-0.237962	0.325175
H145	H	0.992511	-0.847088	-0.259723
H146	H	1.492511	-0.347088	0.240277
C147	C	0.924123	-0.700364	-0.964413
C148	C	1.424123	-0.200364	-0.464413
N149	N	0.888083	-0.751958	-0.932512
N150	N	1.388083	-0.251958	-0.432512
H151	H	0.737677	-0.445582	-0.287198
H152	H	1.237677	0.054418	0.212802
C153	C	0.725905	-0.967662	-0.206466
C154	C	1.225905	-0.467662	0.293534
N155	N	0.669470	-0.993177	-0.195193
N156	N	1.169470	-0.493177	0.304807
H157	H	0.904293	-0.728803	-0.777367
H158	H	1.404293	-0.228803	-0.277367
H159	H	0.400006	-0.740911	-0.476832
H160	H	0.900006	-0.240911	0.023168
H161	H	0.790701	-0.793831	-0.150141
H162	H	1.290701	-0.293831	0.349859
H163	H	1.067417	-0.495229	-0.783958
H164	H	1.567417	0.004771	-0.283958
C165	C	0.263396	-0.458478	-0.295486
C166	C	0.763396	0.041522	0.204514
N167	N	0.234480	-0.398697	-0.257099
N168	N	0.734480	0.101303	0.242901
H169	H	1.099687	-0.448998	-0.982013
H170	H	1.599687	0.051002	-0.482013
C171	C	0.897200	-0.738991	-0.633221
C172	C	1.397200	-0.238991	-0.133221
N173	N	0.861168	-0.790592	-0.601316
N174	N	1.361168	-0.290592	-0.101316
H175	H	0.598040	-0.690787	-0.444646
H176	H	1.098040	-0.190787	0.055354
C177	C	0.911524	-1.192624	-0.281089
C178	C	1.411524	-0.692624	0.218911
N179	N	0.875879	-1.233695	-0.242288
N180	N	1.375879	-0.733695	0.257712
C181	C	0.255868	-0.751909	-0.483909
C182	C	0.755868	-0.251909	0.016091
N183	N	0.223980	-0.807893	-0.519864
N184	N	0.723980	-0.307893	-0.019864
H185	H	0.406503	-0.487401	-0.314053
H186	H	0.906503	0.012599	0.185947
H187	H	0.604534	-0.437283	-0.281871
H188	H	1.104534	0.062717	0.218129
H189	H	1.094351	-0.456614	-1.115150
H190	H	1.594351	0.043386	-0.615150
C191	C	1.092443	-0.984450	-0.477574
C192	C	1.592443	-0.484450	0.022426
N193	N	1.128142	-0.943393	-0.516331
N194	N	1.628142	-0.443393	-0.016331
H195	H	1.180314	-1.109070	-0.463429
H196	H	1.680314	-0.609070	0.036571
H197	H	1.258566	-1.218219	-0.548315
H198	H	1.758566	-0.718219	-0.048315
H199	H	0.931226	-0.690196	-1.108546
H200	H	1.431226	-0.190196	-0.608546
H201	H	1.213236	-1.383231	-0.608535
H202	H	1.713236	-0.883231	-0.108535
C203	C	0.816472	-1.093998	-0.304728
C204	C	1.316472	-0.593998	0.195272
N205	N	0.795768	-1.169358	-0.332226
N206	N	1.295768	-0.669358	0.167774
C207	C	0.991932	-1.338739	-0.495137
C208	C	1.491932	-0.838739	0.004863
N209	N	0.935487	-1.364240	-0.483901
N210	N	1.435487	-0.864240	0.016099
H211	H	1.089654	-1.439098	-0.583875
H212	H	1.589654	-0.939098	-0.083875
