data_functionalizedCrystal
_audit_creation_method	'MofGen! by Chris Wilmer'
_symmetry_space_group_name_H-M	'P1'
_symmetry_Int_Tables_number	1
_symmetry_cell_setting	triclinic
loop_
_symmetry_equiv_pos_as_xyz
  x,y,z
_cell_length_a	14.908783
_cell_length_b	21.295417
_cell_length_c	14.908308
_cell_angle_alpha	93.261727
_cell_angle_beta	89.788727
_cell_angle_gamma	93.320338
loop_
_atom_site_label
_atom_site_type_symbol
_atom_site_fract_x
_atom_site_fract_y
_atom_site_fract_z
Zn1	Zn	1.345265	-0.220173	-0.587804
Zn2	Zn	1.353823	-0.319050	-0.437432
Zn3	Zn	1.203578	-0.219492	-0.428775
Zn4	Zn	1.194846	-0.331104	-0.579053
O5	O	1.274378	-0.272455	-0.508266
O6	O	1.472229	-0.228530	-0.575142
O7	O	1.341129	-0.300514	-0.310461
O8	O	1.222446	-0.131491	-0.449910
O9	O	1.478517	-0.301174	-0.464665
O10	O	1.326543	-0.131992	-0.566748
O11	O	1.230745	-0.227369	-0.304101
O12	O	1.076591	-0.239057	-0.441424
O13	O	1.207563	-0.321719	-0.706036
O14	O	1.070176	-0.321058	-0.551833
O15	O	1.318075	-0.240218	-0.712466
O16	O	1.332662	-0.408740	-0.456179
O17	O	1.215862	-0.417596	-0.560227
C18	C	1.040757	-0.281292	-0.494740
C19	C	0.940812	-0.285089	-0.488975
C20	C	0.746445	-0.216696	-0.593357
C21	C	0.652537	-0.220261	-0.587943
C22	C	0.659088	-0.295781	-0.472729
C23	C	0.752995	-0.292216	-0.478143
C24	C	0.796670	-0.252673	-0.538460
C25	C	0.890580	-0.249111	-0.543878
C26	C	0.897129	-0.324627	-0.428660
C27	C	0.803221	-0.328192	-0.423246
C28	C	1.274266	-0.436009	-0.508214
C29	C	1.274299	-0.505976	-0.508226
C30	C	1.328467	-0.539049	-0.569103
C31	C	1.328497	-0.604791	-0.569127
C32	C	1.274370	-0.637457	-0.508259
C33	C	1.220191	-0.604376	-0.447378
C34	C	1.220156	-0.538636	-0.447361
N35	N	1.272122	-0.737628	-0.429178
N36	N	1.272161	-0.800079	-0.429197
C37	C	1.274473	-0.835530	-0.508306
N38	N	1.276762	-0.806170	-0.587398
N39	N	1.276727	-0.743713	-0.587379
C40	C	1.274402	-0.708742	-0.508270
C41	C	1.328676	-0.939888	-0.569213
C42	C	1.328700	-1.005632	-0.569238
C43	C	1.220400	-1.005215	-0.447481
C44	C	1.220371	-0.939473	-0.447464
C45	C	1.274514	-0.906813	-0.508329
C46	C	1.508911	-0.263583	-0.521845
C47	C	1.608855	-0.259803	-0.527632
C48	C	1.260891	-0.282389	-0.742787
C49	C	1.255143	-0.286622	-0.842726
C50	C	1.274514	-0.108262	-0.508339
C51	C	1.274572	-0.038293	-0.508371
C52	C	1.359416	-0.209696	-1.037219
C53	C	1.354019	-0.213671	-1.131121
C54	C	1.238946	-0.298545	-1.124433
C55	C	1.244344	-0.294569	-1.030532
C56	C	1.304582	-0.250144	-0.986928
C57	C	1.309983	-0.246172	-0.893025
C58	C	1.194907	-0.331042	-0.886339
C59	C	1.189510	-0.335018	-0.980240
C60	C	1.287865	-0.262512	-0.274660
C61	C	1.293787	-0.258095	-0.174732
H62	H	0.611647	-0.190964	-0.632644
N63	N	1.413160	-0.170039	-1.185356
H64	H	1.478339	-0.176689	-1.172729
H65	H	1.400529	-0.179315	-1.251440
H66	H	1.372599	-0.631726	-0.618710
H67	H	1.189903	-0.334713	-1.159952
N68	N	1.387067	-0.904656	-0.634858
H69	H	1.421383	-0.935587	-0.673433
H70	H	1.348027	-0.880537	-0.674308
N71	N	1.387091	-1.041310	-0.634933
H72	H	1.421373	-1.010642	-0.673493
H73	H	1.430854	-1.065459	-0.600813
H74	H	1.140464	-0.371186	-1.015755
N75	N	1.135765	-0.374677	-0.832097
H76	H	1.148325	-0.365421	-0.765994
H77	H	1.070609	-0.368008	-0.844794
N78	N	1.162021	-1.040434	-0.381824
H79	H	1.096957	-1.032052	-0.392012
H80	H	1.170333	-1.087087	-0.391101
N81	N	1.161959	-0.903793	-0.381796
H82	H	1.096906	-0.918292	-0.391985
H83	H	1.179755	-0.912005	-0.318409
N84	N	0.937690	-0.206466	-0.608934
H85	H	0.891619	-0.184215	-0.642887
H86	H	0.978763	-0.174271	-0.574655
N87	N	1.374954	-0.198262	-0.845991
H88	H	1.408870	-0.173240	-0.892103
H89	H	1.340614	-0.168867	-0.804923
H90	H	1.408469	-0.173526	-1.001717
N91	N	0.793551	-0.174059	-0.658426
H92	H	0.830107	-0.199978	-0.702269
H93	H	0.747423	-0.151825	-0.692322
N94	N	0.611974	-0.338416	-0.407662
H95	H	0.544864	-0.335209	-0.412560
H96	H	0.627556	-0.383357	-0.422476
H97	H	0.767648	-0.360385	-0.374135
H98	H	1.372551	-0.512460	-0.618665
N99	N	0.951293	-0.363437	-0.369442
H100	H	0.988146	-0.392714	-0.408156
H101	H	0.992603	-0.334533	-0.330092
N102	N	1.161812	-0.639604	-0.381725
H103	H	1.170057	-0.686269	-0.390969
H104	H	1.179547	-0.624868	-0.318334
H105	H	1.176045	-0.511707	-0.397788
