# CIF file generated by openbabel 2.4.90, see http://openbabel.sf.net
data_I
_chemical_name_common ''
_cell_length_a 21.8827
_cell_length_b 21.8827
_cell_length_c 21.8827
_cell_angle_alpha 90
_cell_angle_beta 90
_cell_angle_gamma 90
_space_group_name_H-M_alt 'P 1'
_space_group_name_Hall 'P 1'
loop_
    _symmetry_equiv_pos_as_xyz
    x,y,z
loop_
    _atom_site_label
    _atom_site_type_symbol
    _atom_site_fract_x
    _atom_site_fract_y
    _atom_site_fract_z
    _atom_site_occupancy
    N0      N    0.20220   0.52380   0.51410   1.000
    N1      N    0.79780   0.47620   0.51410   1.000
    N2      N    0.79780   0.52380   0.48590   1.000
    N3      N    0.20220   0.47620   0.48590   1.000
    N4      N    0.51410   0.20220   0.52380   1.000
    N5      N    0.51410   0.79780   0.47620   1.000
    N6      N    0.48590   0.79780   0.52380   1.000
    N7      N    0.48590   0.20220   0.47620   1.000
    N8      N    0.52380   0.51410   0.20220   1.000
    N9      N    0.47620   0.51410   0.79780   1.000
    N10     N    0.52380   0.48590   0.79780   1.000
    N11     N    0.47620   0.48590   0.20220   1.000
    N12     N    0.02380   0.70220   0.01410   1.000
    N13     N    0.97620   0.29780   0.01410   1.000
    N14     N    0.02380   0.29780   0.98590   1.000
    N15     N    0.97620   0.70220   0.98590   1.000
    N16     N    0.70220   0.01410   0.02380   1.000
    N17     N    0.29780   0.01410   0.97620   1.000
    N18     N    0.29780   0.98590   0.02380   1.000
    N19     N    0.70220   0.98590   0.97620   1.000
    N20     N    0.01410   0.02380   0.70220   1.000
    N21     N    0.01410   0.97620   0.29780   1.000
    N22     N    0.98590   0.02380   0.29780   1.000
    N23     N    0.98590   0.97620   0.70220   1.000
loop_
    _geom_bond_atom_site_label_1
    _geom_bond_atom_site_label_2
    _geom_bond_distance
    _geom_bond_site_symmetry_2
    _ccdc_geom_bond_type
    N13    N14       1.21069  1_654   S
    N12    N15       1.21069  1_454   S
    N18    N17       1.21069  1_564   S
    N16    N19       1.21069  1_544   S
    N8     N11       1.21069      .   S
    N22    N21       1.21069  1_645   S
    N5     N6        1.21069      .   S
    N7     N4        1.21069      .   S
    N3     N0        1.21069      .   S
    N2     N1        1.21069      .   S
    N20    N23       1.21069  1_445   S
    N9     N10       1.21069      .   S
