# CIF file generated by openbabel 3.1.0, see https://openbabel.org
data_I
_chemical_name_common ''
_cell_length_a 19.2889
_cell_length_b 10.6546
_cell_length_c 18.3662
_cell_angle_alpha 89.995
_cell_angle_beta 89.9771
_cell_angle_gamma 83.8106
_space_group_name_H-M_alt 'P 1'
_space_group_name_Hall 'P 1'
loop_
    _symmetry_equiv_pos_as_xyz
    x,y,z
loop_
    _atom_site_label
    _atom_site_type_symbol
    _atom_site_fract_x
    _atom_site_fract_y
    _atom_site_fract_z
    _atom_site_occupancy
    Zr0      Zr       0.82130    0.16721    0.07957    1.000
    Zr1      Zr       0.82132    0.16722    0.92002    1.000
    O2       O        0.82131    0.16722    0.99979    1.000
    N3       N        0.82322    0.15572    0.49142    1.000
    O4       O        0.82225    0.16147    0.31272    1.000
    O5       O        0.82227    0.16147    0.67849    1.000
    N6       N        0.31829    0.18264    0.00174    1.000
    O7       O        0.54453    0.17757    0.03585    1.000
    O8       O        0.54454    0.17757    0.96569    1.000
    O9       O        0.09507    0.17229    0.96568    1.000
    O10      O        0.09506    0.17229    0.03584    1.000
    N11      N        0.84554    0.65521    0.00214    1.000
    O12      O        0.83226    0.45692    0.03605    1.000
    O13      O        0.83458    0.86550    0.03605    1.000
    O14      O        0.83227    0.45693    0.96588    1.000
    O15      O        0.83459    0.86551    0.96588    1.000
loop_
    _geom_bond_atom_site_label_1
    _geom_bond_atom_site_label_2
    _geom_bond_distance
    _geom_bond_site_symmetry_2
    _ccdc_geom_bond_type
    Zr0    O2        1.46520  1_554   S
    Zr1    O2        1.46520      .   S
    N3     O4        3.28265      .   S
    Zr0    O4        4.28247      .   S
    N3     O5        3.43643      .   S
    Zr1    O5        4.43626      .   S
    N6     O7        4.40340      .   S
    Zr0    O7        5.38820      .   S
    N6     O8        4.40829  1_554   S
    Zr1    O8        5.39329      .   S
    N6     O9        4.36974  1_554   S
    Zr1    O9        5.35290  1_655   S
    N6     O10       4.36414      .   S
    Zr0    O10       5.34706  1_655   S
    N11    O12       2.24350      .   S
    Zr0    O12       3.21740      .   S
    N11    O13       2.31316      .   S
    Zr0    O13       3.29558  1_545   S
    N11    O14       2.25589  1_554   S
    Zr1    O14       3.22843      .   S
    N11    O15       2.32510  1_554   S
    Zr1    O15       3.30627  1_545   S
