data_functionalizedCrystal
_audit_creation_method	'MofGen! by Chris Wilmer'
_symmetry_space_group_name_H-M	'P1'
_symmetry_Int_Tables_number	1
_symmetry_cell_setting	triclinic
loop_
_symmetry_equiv_pos_as_xyz
  x,y,z
_cell_length_a	16.959454
_cell_length_b	16.959455
_cell_length_c	16.959447
_cell_angle_alpha	89.985678
_cell_angle_beta	90.026736
_cell_angle_gamma	89.982978
loop_
_atom_site_label
_atom_site_type_symbol
_atom_site_fract_x
_atom_site_fract_y
_atom_site_fract_z
Zn1	Zn	-0.314730	-1.208384	0.446928
Zn2	Zn	-0.446923	-1.208306	0.314758
Zn3	Zn	-0.314755	-1.076212	0.314766
Zn4	Zn	-0.446864	-1.076177	0.446897
O5	O	-0.380818	-1.142270	0.380837
O6	O	-0.332280	-1.318984	0.429406
O7	O	-0.429426	-1.190766	0.204148
O8	O	-0.204141	-1.093792	0.332314
O9	O	-0.429402	-1.318927	0.332301
O10	O	-0.204123	-1.190898	0.429413
O11	O	-0.332323	-1.093717	0.204154
O12	O	-0.332265	-0.965597	0.332283
O13	O	-0.429301	-1.093732	0.557512
O14	O	-0.429325	-0.965571	0.429359
O15	O	-0.332223	-1.190864	0.557535
O16	O	-0.557526	-1.190732	0.332270
O17	O	-0.557482	-1.093657	0.429352
C18	C	-0.380792	-0.936904	0.380819
C19	C	-0.380800	-0.849047	0.380830
C20	C	-0.586184	-1.142204	0.380824
C21	C	-0.674041	-1.142248	0.380844
C22	C	-0.380753	-1.142303	0.587006
C23	C	-0.380725	-1.142317	0.674862
C24	C	-1.045524	-1.091796	0.431382
C25	C	-1.045509	-1.192963	0.330373
C26	C	-0.962963	-1.192936	0.330365
C27	C	-0.921694	-1.142337	0.380867
C28	C	-0.962970	-1.091765	0.431375
C29	C	-0.921680	-1.243501	0.279852
C30	C	-0.839130	-1.243475	0.279842
C31	C	-0.797859	-1.192879	0.330348
C32	C	-0.839140	-1.142306	0.380859
C33	C	-0.797871	-1.091707	0.431360
C34	C	-0.839151	-1.041137	0.481876
C35	C	-0.921699	-1.041170	0.481881
C36	C	-0.715310	-1.192847	0.330343
C37	C	-0.715317	-1.091676	0.431353
C38	C	-0.174650	-1.142358	0.380868
C39	C	-0.086793	-1.142395	0.380881
C40	C	-0.380845	-1.348438	0.380856
C41	C	-0.380856	-1.436295	0.380864
C42	C	-0.330238	-0.477560	0.330395
C43	C	-0.431463	-0.477582	0.431324
C44	C	-0.431452	-0.560128	0.431320
C45	C	-0.380834	-0.601394	0.380851
C46	C	-0.330226	-0.560114	0.330387
C47	C	-0.482064	-0.601414	0.481777
C48	C	-0.482055	-0.683965	0.481773
C49	C	-0.431432	-0.725233	0.431308
C50	C	-0.380822	-0.683948	0.380843
C51	C	-0.330204	-0.725213	0.330374
C52	C	-0.279589	-0.683930	0.279913
C53	C	-0.279603	-0.601381	0.279922
C54	C	-0.431418	-0.807781	0.431299
C55	C	-0.330193	-0.807767	0.330366
C56	C	-0.380826	-1.142283	0.175471
C57	C	-0.380631	-1.142422	0.087615
C58	C	-0.431185	-1.091839	1.046328
C59	C	-0.330097	-1.192983	1.046348
C60	C	-0.330114	-1.192962	0.963802
C61	C	-0.380668	-1.142380	0.922515
C62	C	-0.431205	-1.091818	0.963775
C63	C	-0.279584	-1.243529	0.922536
C64	C	-0.279599	-1.243510	0.839985
C65	C	-0.330149	-1.192923	0.798697
C66	C	-0.380688	-1.142359	0.839962
C67	C	-0.431242	-1.091776	0.798675
C68	C	-0.481777	-1.041207	0.839938
C69	C	-0.481756	-1.041231	0.922487
C70	C	-0.330171	-1.192899	0.716149
C71	C	-0.431262	-1.091755	0.716122
H72	H	-0.681721	-1.050475	0.472480
H73	H	-0.805540	-0.999936	0.522991
H74	H	-0.472630	-0.841390	0.472381
H75	H	-0.238450	-1.284686	0.806396
H76	H	-0.805524	-1.284651	0.238711
H77	H	-1.079138	-1.050626	0.472513
H78	H	-0.288968	-0.841360	0.289273
H79	H	-1.079115	-1.234154	0.289252
H80	H	-0.472422	-1.050557	0.682512
H81	H	-0.955317	-0.999998	0.523007
H82	H	-0.955288	-1.284690	0.238731
H83	H	-0.288943	-1.234170	1.079968
H84	H	-0.238430	-1.284715	0.956158
H85	H	-0.472679	-0.443979	0.472409
H86	H	-0.681704	-1.234016	0.289211
H87	H	-0.472327	-1.050665	1.079928
H88	H	-0.238379	-0.717539	0.238818
H89	H	-0.238397	-0.567761	0.238838
H90	H	-0.522942	-1.000026	0.806312
H91	H	-0.289026	-0.443944	0.289313
H92	H	-0.522901	-1.000063	0.956091
H93	H	-0.523280	-0.567810	0.522860
H94	H	-0.523268	-0.717571	0.522863
H95	H	-0.289028	-1.234074	0.682556
