data_functionalizedCrystal
_audit_creation_method	'MofGen! by Chris Wilmer'
_symmetry_space_group_name_H-M	'P1'
_symmetry_Int_Tables_number	1
_symmetry_cell_setting	triclinic
loop_
_symmetry_equiv_pos_as_xyz
  x,y,z
_cell_length_a	6.394989
_cell_length_b	10.654550
_cell_length_c	9.730223
_cell_angle_alpha	90.002803
_cell_angle_beta	89.997835
_cell_angle_gamma	85.491321
loop_
_atom_site_label
_atom_site_type_symbol
_atom_site_fract_x
_atom_site_fract_y
_atom_site_fract_z
O1	O	-0.293444	-1.670942	0.114177
O2	O	-0.321401	-1.305759	0.114202
O3	O	-0.003434	-1.493534	0.114190
O4	O	-0.611412	-1.483167	0.114189
O5	O	-0.003419	-1.493532	-0.114390
O6	O	-0.321387	-1.305757	-0.114378
O7	O	-0.293430	-1.670940	-0.114403
Zn8	Zn	-0.307406	-1.488348	-0.150682
Zn9	Zn	-0.307425	-1.488351	0.150482
O10	O	-0.611397	-1.483165	-0.114391
C11	C	-0.319341	-1.258939	-0.000085
C12	C	-0.313200	-1.119430	-0.000075
C13	C	0.074425	-1.491483	-0.000094
C14	C	0.310750	-1.485219	-0.000093
C15	C	-0.295490	-1.717760	-0.000113
C16	C	-0.301631	-1.857269	-0.000113
N17	N	-0.307423	-1.488353	0.356018
N18	N	-0.307392	-1.488356	-0.356219
C19	C	-0.500414	-1.041927	-0.000080
C20	C	-0.494631	-0.910845	-0.000104
C21	C	-0.114403	-0.934782	-0.000113
C22	C	-0.120188	-1.065861	-0.000099
C23	C	-0.166906	-1.571663	0.427939
C24	C	-0.166895	-1.571668	0.571822
C25	C	-0.447924	-1.405042	0.571850
C26	C	-0.447944	-1.405044	0.427970
H27	H	-0.657577	-1.085539	-0.000071
H28	H	-0.052476	-1.639508	0.630376
H29	H	0.042741	-0.891149	-0.000141
H30	H	-0.562330	-1.337212	0.630448
H31	H	-0.562380	-1.337203	0.369408
H32	H	-0.647080	-0.847747	-0.000110
H33	H	0.032274	-1.128967	-0.000099
H34	H	-0.052489	-1.639500	0.369359
