data_functionalizedCrystal
_audit_creation_method	'MofGen! by Chris Wilmer'
_symmetry_space_group_name_H-M	'P1'
_symmetry_Int_Tables_number	1
_symmetry_cell_setting	triclinic
loop_
_symmetry_equiv_pos_as_xyz
  x,y,z
_cell_length_a	10.654550
_cell_length_b	9.130313
_cell_length_c	10.654551
_cell_angle_alpha	90.002754
_cell_angle_beta	84.485180
_cell_angle_gamma	90.000276
loop_
_atom_site_label
_atom_site_type_symbol
_atom_site_fract_x
_atom_site_fract_y
_atom_site_fract_z
O1	O	1.667840	0.121684	0.176399
O2	O	1.302362	0.121710	0.193205
O3	O	1.493503	0.121693	0.002063
O4	O	1.476699	0.121701	0.367541
O5	O	1.493490	-0.121906	0.002057
O6	O	1.302349	-0.121889	0.193199
O7	O	1.667827	-0.121915	0.176393
Cu8	Cu	1.485087	-0.144144	0.184796
Cu9	Cu	1.485102	0.143939	0.184802
O10	O	1.476686	-0.121898	0.367535
C11	C	1.255557	-0.000086	0.191968
C12	C	1.116114	-0.000076	0.188276
N13	N	1.485085	-0.346767	0.184790
C14	C	1.036629	-0.000078	0.300818
C15	C	0.905608	-0.000103	0.297341
C16	C	0.933570	-0.000119	0.068772
C17	C	1.064589	-0.000104	0.072249
C18	C	1.569751	-0.423426	0.100188
C19	C	1.569763	-0.576763	0.100189
C20	C	1.400439	-0.576768	0.269404
C21	C	1.400421	-0.423434	0.269396
C22	C	1.714632	-0.000116	0.177630
C23	C	1.854075	-0.000116	0.181322
C24	C	1.492262	-0.000104	-0.044738
C25	C	1.488570	-0.000097	-0.184181
N26	N	1.485114	0.346562	0.184798
C27	C	1.486844	0.132690	-0.249682
C28	C	1.483364	0.132692	-0.380702
C29	C	1.483341	-0.132893	-0.380710
C30	C	1.486812	-0.132893	-0.249691
C31	C	1.477926	-0.000098	0.414336
C32	C	1.481619	-0.000095	0.553779
H33	H	1.078576	-0.000066	0.395294
H34	H	0.840896	-0.000108	0.388984
H35	H	0.891602	-0.000151	-0.025693
H36	H	1.638687	-0.361008	0.031295
H37	H	1.129309	-0.000106	-0.019401
H38	H	1.481912	-0.241011	-0.434065
H39	H	1.481956	0.240821	-0.434027
H40	H	1.638704	-0.639175	0.031297
H41	H	1.488272	0.240822	-0.196347
H42	H	1.331509	-0.639205	0.338290
H43	H	1.488210	-0.241031	-0.196358
H44	H	1.331470	-0.361014	0.338290
