data_VESTA_phase_1

_pd_phase_name                         'NU-1000'
_cell_length_a                         39.97000
_cell_length_b                         40.00000
_cell_length_c                         16.58000
_cell_angle_alpha                      90
_cell_angle_beta                       90
_cell_angle_gamma                      120

_symmetry_space_group_name_H-M         'P 1'
_symmetry_Int_Tables_number            1

_symmetry_equiv_pos_as_xyz 'x, y, z'

loop_
_atom_site_label
_atom_site_type_symbol
_atom_site_fract_x
_atom_site_fract_y
_atom_site_fract_z
_atom_site_charge
C1	C	0.482318	0.836263	0.833715	-0.04047900
C2	C	0.519877	0.164574	0.830096	-0.04032900
C3	C	0.35383	0.836378	0.832992	-0.04265200
C4	C	0.643564	0.163563	0.827925	-0.04079900
C5	C	0.510126	0.874888	0.818758	-0.14214800
C6	C	0.493293	0.125747	0.813148	-0.14378200
C7	C	0.365179	0.875061	0.816767	-0.14342300
C8	C	0.632218	0.124939	0.81146	-0.14305700
C9	C	0.535783	0.883461	0.754162	-0.04864200
C10	C	0.466289	0.117029	0.751086	-0.04812400
C11	C	0.346869	0.883317	0.754041	-0.04818400
C12	C	0.650654	0.116682	0.749035	-0.05220000
C13	C	0.533402	0.854103	0.705006	-0.16010200
C14	C	0.466447	0.146445	0.705971	-0.16372800
C15	C	0.318617	0.853757	0.707358	-0.16225900
C16	C	0.679174	0.146329	0.702895	-0.16016600
C17	C	0.505513	0.815219	0.719361	0.09771400
C18	C	0.493668	0.185445	0.72117	0.10373200
C19	C	0.307592	0.814872	0.722135	0.10083100
C20	C	0.690285	0.185185	0.718094	0.10079700
C21	C	0.480177	0.806934	0.784982	-0.16686200
C22	C	0.519942	0.193903	0.784982	-0.16812500
C23	C	0.325418	0.806847	0.78655	-0.16760500
C24	C	0.672259	0.19321	0.782207	-0.16722000
C25	C	0.519903	0.163477	0.17123	-0.04091700
C26	C	0.482733	0.836292	0.166767	-0.04221800
C27	C	0.644914	0.16466	0.1693	-0.03977300
C28	C	0.353413	0.835945	0.165862	-0.04187500
C29	C	0.49261	0.124881	0.187937	-0.14349100
C30	C	0.51008	0.874945	0.183233	-0.14386100
C31	C	0.632581	0.125862	0.18661	-0.14475100
C32	C	0.364298	0.874599	0.181122	-0.14124800
C33	C	0.465912	0.116625	0.250422	-0.05206500
C34	C	0.536696	0.883086	0.245838	-0.04828500
C35	C	0.650885	0.117144	0.248552	-0.04774700
C36	C	0.346985	0.882999	0.245597	-0.04884800
C37	C	0.467115	0.146329	0.296381	-0.15944800
C38	C	0.535321	0.853439	0.29222	-0.16300100
C39	C	0.68024	0.14656	0.293486	-0.16362200
C40	C	0.319942	0.853555	0.294451	-0.16075100
C41	C	0.494885	0.185127	0.281062	0.10101000
C42	C	0.507422	0.814583	0.277322	0.10216700
C43	C	0.692124	0.18556	0.278046	0.10239900
C44	C	0.309056	0.814699	0.280036	0.10013400
C45	C	0.520867	0.193153	0.216888	-0.16766700
C46	C	0.481584	0.806645	0.212847	-0.16751000
C47	C	0.67429	0.194019	0.214294	-0.16822700
C48	C	0.326174	0.806558	0.214355	-0.16720300
C49	C	0.396874	0.906353	0.865078	0.76131900
C50	C	0.510738	0.906209	0.868456	0.76191400
C51	C	0.509594	0.906324	0.135404	0.76154000
C52	C	0.600151	0.094252	0.140832	0.76362200
C53	C	0.492566	0.093444	0.139566	0.76311400
C54	C	0.494068	0.094195	0.859107	0.76317000
C55	C	0.395225	0.906007	0.131846	0.76180400
C56	C	0.600877	0.093502	0.860072	0.76211800
C57	C	0.836149	0.353945	0.833715	-0.04226700
C58	C	0.164698	0.644698	0.830096	-0.04178200
C59	C	0.836259	0.482463	0.832992	-0.04288200
C60	C	0.163676	0.520106	0.827925	-0.04046000
C61	C	0.874766	0.36477	0.818758	-0.13990200
C62	C	0.125849	0.632458	0.813148	-0.14232000
C63	C	0.874967	0.509771	0.816767	-0.14221800
C64	C	0.125017	0.492797	0.81146	-0.14369500
C65	C	0.883367	0.347709	0.754162	-0.04984200
C66	C	0.117114	0.650703	0.751086	-0.04878300
C67	C	0.883227	0.53633	0.754041	-0.04899400
C68	C	0.116764	0.466153	0.749035	-0.05129400
C69	C	0.853975	0.320718	0.705006	-0.15986600
C70	C	0.146558	0.679945	0.705971	-0.16408600
C71	C	0.853641	0.535002	0.707358	-0.16374800
C72	C	0.146424	0.467278	0.702895	-0.16051600
C73	C	0.815071	0.30972	0.719361	0.09776800
C74	C	0.18558	0.691781	0.72117	0.10432900
C75	C	0.814733	0.507144	0.722135	0.10223600
C76	C	0.185324	0.49502	0.718094	0.10117200
C77	C	0.806781	0.326751	0.784982	-0.16682200
C78	C	0.19403	0.67397	0.784982	-0.16867700
C79	C	0.806709	0.481308	0.78655	-0.16728700
C80	C	0.193349	0.521059	0.782207	-0.16805800
C81	C	0.163623	0.643601	0.17123	-0.04254400
C82	C	0.836172	0.35354	0.166767	-0.04275600
C83	C	0.164772	0.519846	0.1693	-0.04141800
C84	C	0.835844	0.482434	0.165862	-0.04229400
C85	C	0.124972	0.632256	0.187937	-0.14220300
C86	C	0.874849	0.364885	0.183233	-0.14376500
C87	C	0.125957	0.493375	0.18661	-0.14370100
C88	C	0.874508	0.510204	0.181122	-0.14021200
C89	C	0.116739	0.650703	0.250422	-0.05208200
C90	C	0.883007	0.346439	0.245838	-0.04858000
C91	C	0.117215	0.466355	0.248552	-0.04841100
C92	C	0.882925	0.535925	0.245597	-0.05002000
C93	C	0.146432	0.679195	0.296381	-0.16010100
C94	C	0.853314	0.318149	0.29222	-0.16277500
C95	C	0.146656	0.466441	0.293486	-0.16367800
C96	C	0.853426	0.533472	0.294451	-0.16132600
C97	C	0.18529	0.690251	0.281062	0.10078900
C98	C	0.814436	0.30715	0.277322	0.10127800
C99	C	0.185703	0.493577	0.278046	0.10233700
C100	C	0.814575	0.505528	0.280036	0.10099200
C101	C	0.193293	0.672296	0.216888	-0.16588300
C102	C	0.806479	0.325048	0.212847	-0.16747000
C103	C	0.194144	0.519846	0.214294	-0.16705900
C104	C	0.8064	0.48024	0.214355	-0.16744100
C105	C	0.906278	0.509396	0.865078	0.76014700
C106	C	0.906133	0.395456	0.868456	0.76050800
C107	C	0.906243	0.396726	0.135404	0.76105700
C108	C	0.094323	0.494154	0.140832	0.76241200
C109	C	0.093494	0.600848	0.139566	0.76322900
C110	C	0.094259	0.600127	0.859107	0.76316800
C111	C	0.905941	0.510724	0.131846	0.76045000
C112	C	0.093576	0.492711	0.860072	0.76373200
C113	C	0.51775	0.353973	0.166285	-0.04145000
C114	C	0.480045	0.644669	0.169904	-0.04123200
C115	C	0.64622	0.48252	0.167008	-0.04290700
C116	C	0.356377	0.520019	0.172075	-0.04088800
C117	C	0.489942	0.364799	0.181242	-0.14204100
C118	C	0.506645	0.632429	0.186852	-0.14318800
C119	C	0.634841	0.509829	0.183233	-0.14338600
C120	C	0.36776	0.492768	0.18854	-0.14299900
C121	C	0.464253	0.347709	0.245838	-0.04835700
C122	C	0.533652	0.650703	0.248914	-0.04836900
C123	C	0.653134	0.536387	0.245959	-0.04883600
C124	C	0.349334	0.466095	0.250965	-0.05194900
C125	C	0.466673	0.320747	0.294994	-0.16008900
C126	C	0.533473	0.679945	0.294029	-0.16427000
C127	C	0.681391	0.535059	0.292642	-0.16308300
C128	C	0.320801	0.467221	0.297105	-0.16031400
C129	C	0.494585	0.309777	0.280639	0.09763900
C130	C	0.506256	0.691752	0.27883	0.10414600
C131	C	0.69246	0.507231	0.277865	0.10208300
C132	C	0.309663	0.494962	0.281906	0.10112500
C133	C	0.519905	0.32678	0.215018	-0.16649700
C134	C	0.47998	0.673941	0.215018	-0.16838400
C135	C	0.674653	0.481395	0.21345	-0.16751000
C136	C	0.327682	0.520972	0.217793	-0.16770300
C137	C	0.480046	0.643572	0.82877	-0.04039200
C138	C	0.517323	0.353569	0.833233	-0.04319500
C139	C	0.355061	0.519788	0.8307	-0.04101900
C140	C	0.646606	0.482492	0.834137	-0.04227900
C141	C	0.507319	0.632227	0.812063	-0.14281100
C142	C	0.49	0.364914	0.816767	-0.14370600
C143	C	0.367384	0.493317	0.81339	-0.14357600
C144	C	0.635733	0.510262	0.818878	-0.14064200
C145	C	0.534012	0.650674	0.749578	-0.05204300
C146	C	0.463367	0.346439	0.754162	-0.04776300
C147	C	0.34911	0.466297	0.751447	-0.04863100
C148	C	0.653031	0.535983	0.754403	-0.04902000
C149	C	0.532833	0.679166	0.703619	-0.15994700
C150	C	0.464762	0.318178	0.70778	-0.16334100
C151	C	0.319757	0.466384	0.706514	-0.16326200
C152	C	0.680089	0.533558	0.705549	-0.16179200
C153	C	0.50504	0.690222	0.718938	0.10110200
C154	C	0.492649	0.307208	0.722678	0.10175700
C155	C	0.307826	0.49349	0.721954	0.10252400
C156	C	0.690986	0.505586	0.719964	0.10129800
C157	C	0.479053	0.672238	0.783112	-0.16792300
C158	C	0.518502	0.325077	0.787153	-0.16712600
C159	C	0.325649	0.51976	0.785706	-0.16825000
C160	C	0.673869	0.480327	0.785645	-0.16751700
C161	C	0.60314	0.509425	0.134922	0.76083000
C162	C	0.489284	0.395485	0.131544	0.76190400
C163	C	0.490445	0.396755	0.864596	0.76147000
C164	C	0.399837	0.494125	0.859168	0.76269500
C165	C	0.507405	0.600848	0.860434	0.76339200
C166	C	0.505903	0.600098	0.140893	0.76364700
C167	C	0.60478	0.510753	0.868154	0.76099300
C168	C	0.399101	0.492653	0.139928	0.76311000
C169	C	0.492313	0.214688	0.322376	0.02421700
C170	C	0.490606	0.214976	0.40959	0.03062700
C171	C	0.49481	0.188678	0.45579	-0.14560000
C172	C	0.494729	0.247366	0.282811	-0.18555900
C173	C	0.489254	0.244623	0.453016	0.00547300
C174	C	0.277611	0.492307	0.322376	0.02506000
C175	C	0.275648	0.490632	0.40959	0.03049300
C176	C	0.306114	0.494818	0.45579	-0.14585800
C177	C	0.247376	0.494731	0.282811	-0.18641200
C178	C	0.244607	0.489247	0.453016	0.00486700
C179	C	0.785298	0.277619	0.322376	0.02765500
C180	C	0.785002	0.275627	0.40959	0.03130300
C181	C	0.811314	0.306111	0.45579	-0.14549800
C182	C	0.752647	0.247366	0.282811	-0.18782000
C183	C	0.755378	0.244623	0.453016	0.00484600
C184	C	0.507687	0.785312	0.322376	0.02706200
C185	C	0.509394	0.785023	0.40959	0.03137200
C186	C	0.50519	0.811321	0.45579	-0.14555800
C187	C	0.505271	0.752634	0.282811	-0.18780200
C188	C	0.510746	0.755376	0.453016	0.00472200
C189	C	0.722388	0.507693	0.322376	0.02708200
C190	C	0.724352	0.509367	0.40959	0.03095200
C191	C	0.693886	0.505181	0.45579	-0.14472400
C192	C	0.752623	0.505268	0.282811	-0.18658100
C193	C	0.755393	0.510753	0.453016	0.00484900
C194	C	0.214701	0.722381	0.322376	0.02460900
C195	C	0.214998	0.724373	0.40959	0.03047400
C196	C	0.188686	0.693888	0.45579	-0.14571500
C197	C	0.247352	0.752634	0.282811	-0.18551200
C198	C	0.244622	0.755376	0.453016	0.00544500
C199	C	0.78531	0.507693	0.677624	0.02731900
C200	C	0.785022	0.509367	0.59041	0.03093100
C201	C	0.811299	0.505181	0.54421	-0.14472100
C202	C	0.752649	0.505268	0.717189	-0.18670300
C203	C	0.755368	0.510753	0.546984	0.00480200
C204	C	0.277614	0.785312	0.677624	0.02626000
C205	C	0.275643	0.785023	0.59041	0.03150800
C206	C	0.306115	0.811321	0.54421	-0.14532600
C207	C	0.247377	0.752634	0.717189	-0.18737600
C208	C	0.244622	0.755376	0.546984	0.00496300
C209	C	0.492304	0.277619	0.677624	0.02714100
C210	C	0.490606	0.275627	0.59041	0.03133500
C211	C	0.494802	0.306111	0.54421	-0.14554200
C212	C	0.494729	0.247366	0.717189	-0.18778800
C213	C	0.489254	0.244623	0.546984	0.00464900
C214	C	0.214689	0.492307	0.677624	0.02502400
C215	C	0.214977	0.490632	0.59041	0.03057300
C216	C	0.188701	0.494818	0.54421	-0.14573000
C217	C	0.247351	0.494731	0.717189	-0.18647800
C218	C	0.244632	0.489247	0.546984	0.00483400
C219	C	0.722386	0.214688	0.677624	0.02534400
C220	C	0.724356	0.214976	0.59041	0.03041200
C221	C	0.693884	0.188678	0.54421	-0.14551500
C222	C	0.752622	0.247366	0.717189	-0.18553300
C223	C	0.755378	0.244623	0.546984	0.00546000
C224	C	0.507696	0.722381	0.677624	0.02414500
C225	C	0.509393	0.724373	0.59041	0.03072100
C226	C	0.505198	0.693888	0.54421	-0.14585200
C227	C	0.505271	0.752634	0.717189	-0.18544500
C228	C	0.510746	0.755376	0.546984	0.00546700
C229	C	0.507687	0.785312	0.677624	0.02508200
C230	C	0.509394	0.785023	0.59041	0.03018400
C231	C	0.50519	0.811321	0.54421	-0.14511200
C232	C	0.722388	0.507693	0.677624	0.02505200
C233	C	0.724352	0.509367	0.59041	0.03081500
C234	C	0.693886	0.505181	0.54421	-0.14566300
C235	C	0.214701	0.722381	0.677624	0.02468500
C236	C	0.214998	0.724373	0.59041	0.03180100
C237	C	0.188686	0.693888	0.54421	-0.14607400
C238	C	0.492313	0.214688	0.677624	0.02448300
C239	C	0.490606	0.214976	0.59041	0.03172700
C240	C	0.49481	0.188678	0.54421	-0.14582100
C241	C	0.277611	0.492307	0.677624	0.02635700
C242	C	0.275648	0.490632	0.59041	0.03156700
C243	C	0.306114	0.494818	0.54421	-0.14517800
C244	C	0.785298	0.277619	0.677624	0.02541200
C245	C	0.785002	0.275627	0.59041	0.03016500
C246	C	0.811314	0.306111	0.54421	-0.14519200
C247	C	0.214689	0.492307	0.322376	0.02625900
C248	C	0.214977	0.490632	0.40959	0.03170200
C249	C	0.188701	0.494818	0.45579	-0.14525500
C250	C	0.722386	0.214688	0.322376	0.02528900
C251	C	0.724356	0.214976	0.40959	0.03191400
C252	C	0.693884	0.188678	0.45579	-0.14576400
C253	C	0.507696	0.722381	0.322376	0.02452600
C254	C	0.509393	0.724373	0.40959	0.03171600
C255	C	0.505198	0.693888	0.45579	-0.14599600
C256	C	0.78531	0.507693	0.322376	0.02516900
C257	C	0.785022	0.509367	0.40959	0.03074700
C258	C	0.811299	0.505181	0.45579	-0.14563300
C259	C	0.277614	0.785312	0.322376	0.02563500
C260	C	0.275643	0.785023	0.40959	0.03060500
C261	C	0.306115	0.811321	0.45579	-0.14550900
C262	C	0.492304	0.277619	0.322376	0.02525600
C263	C	0.490606	0.275627	0.40959	0.03003200
C264	C	0.494802	0.306111	0.45579	-0.14507600
H1	H	0.46241	0.829826	0.883534	0.11380500
H2	H	0.540504	0.171098	0.878649	0.11329400
H3	H	0.367919	0.830085	0.881846	0.11503900
H4	H	0.629368	0.169741	0.876779	0.11419100
H5	H	0.557045	0.913455	0.74228	0.11466700
H6	H	0.445412	0.087007	0.738963	0.11298300
H7	H	0.355772	0.91331	0.741556	0.11258800
H8	H	0.64227	0.086776	0.737274	0.11166400
H9	H	0.553354	0.861378	0.654765	0.11685900
H10	H	0.445444	0.13917	0.65778	0.11680100
H11	H	0.305183	0.860858	0.658444	0.11677100
H12	H	0.693006	0.139372	0.654524	0.11749800
H13	H	0.458404	0.777171	0.797527	0.11033000
H14	H	0.540886	0.22381	0.798733	0.11085000
H15	H	0.317141	0.777056	0.799819	0.10988900
H16	H	0.680582	0.222944	0.795718	0.11081300
H17	H	0.540268	0.169626	0.122376	0.11472300
H18	H	0.462404	0.830114	0.117913	0.11492000
H19	H	0.630786	0.171127	0.120808	0.11369700
H20	H	0.366987	0.829623	0.116043	0.11399800
H21	H	0.444407	0.086747	0.262123	0.11199200
H22	H	0.557844	0.913051	0.258625	0.11249800
H23	H	0.641628	0.087093	0.260856	0.11336100
H24	H	0.355674	0.912964	0.25772	0.11421500
H25	H	0.446321	0.139372	0.344753	0.11703200
H26	H	0.555879	0.860425	0.341194	0.11646100
H27	H	0.693963	0.139286	0.341556	0.11685900
H28	H	0.307202	0.860743	0.344632	0.11684200
H29	H	0.5423	0.222886	0.203438	0.11096400
H30	H	0.460036	0.776883	0.199337	0.10956900
H31	H	0.683286	0.223896	0.200422	0.11078600
H32	H	0.318187	0.776796	0.201628	0.11002100
H33	H	0.456937	0.056638	0.997346	0.49140700
H34	H	0.473001	0.943592	0.827262	0.48833700
H35	H	0.592508	0.972777	0.098432	0.43950200
H36	H	0.601223	0.999393	0.021532	0.43633000
H37	H	0.37921	0.978551	0.099578	0.41958500
H38	H	0.491489	0.000491	0.245115	0.43446000
H39	H	0.551942	0.021506	0.265259	0.41629800
H40	H	0.472638	0.026818	0.256454	0.43394200
H41	H	0.599737	0.056725	0.002654	0.49200500
H42	H	0.470599	0.943592	0.17316	0.48907600
H43	H	0.599501	0.978753	0.900663	0.41968700
H44	H	0.398088	0.999278	0.97877	0.43670000
H45	H	0.380195	0.97272	0.90193	0.43886000
H46	H	0.55416	0.026789	0.743727	0.43450400
H47	H	0.469512	0.02142	0.735042	0.41594800
H48	H	0.508973	0.000433	0.755127	0.43461000
H49	H	0.829696	0.367397	0.883534	0.11437000
H50	H	0.171234	0.630611	0.878649	0.11418800
H51	H	0.829964	0.462082	0.881846	0.11457200
H52	H	0.169856	0.540458	0.876779	0.11411400
H53	H	0.913374	0.356427	0.74228	0.11512500
H54	H	0.087066	0.641552	0.738963	0.11324500
H55	H	0.913251	0.557432	0.741556	0.11284700
H56	H	0.086824	0.444617	0.737274	0.11145300
H57	H	0.861244	0.308045	0.654765	0.11691100
H58	H	0.139258	0.693657	0.65778	0.11665200
H59	H	0.860748	0.555555	0.658444	0.11692300
H60	H	0.139452	0.446494	0.654524	0.11734400
H61	H	0.77701	0.318755	0.797527	0.11034400
H62	H	0.223992	0.682948	0.798733	0.11100600
H63	H	0.776909	0.459802	0.799819	0.10982600
H64	H	0.223121	0.542507	0.795718	0.11075000
H65	H	0.169777	0.629398	0.122376	0.11496000
H66	H	0.82999	0.367686	0.117913	0.11502000
H67	H	0.171243	0.540429	0.120808	0.11432300
H68	H	0.829494	0.462544	0.116043	0.11430600
H69	H	0.086816	0.642302	0.262123	0.11166100
H70	H	0.912982	0.355244	0.258625	0.11272600
H71	H	0.08715	0.44557	0.260856	0.11363900
H72	H	0.91291	0.557201	0.25772	0.11469400
H73	H	0.139491	0.693022	0.344753	0.11715900
H74	H	0.860325	0.30461	0.341194	0.11663700
H75	H	0.139396	0.445483	0.341556	0.11716500
H76	H	0.860655	0.553419	0.344632	0.11696200
H77	H	0.223072	0.680609	0.203438	0.10993800
H78	H	0.776718	0.316821	0.199337	0.11003400
H79	H	0.224066	0.540746	0.200422	0.11052700
H80	H	0.776644	0.458474	0.201628	0.11010300
H81	H	0.056675	0.599665	0.997346	0.49155300
H82	H	0.943542	0.470569	0.827262	0.48799700
H83	H	0.972744	0.380329	0.098432	0.43901800
H84	H	0.999378	0.398256	0.021532	0.43606700
H85	H	0.978539	0.599261	0.099578	0.41938400
H86	H	0.000511	0.509021	0.245115	0.43447800
H87	H	0.02151	0.469588	0.265259	0.41664100
H88	H	0.02683	0.55417	0.256454	0.43432100
H89	H	0.056772	0.457059	0.002654	0.49214200
H90	H	0.94354	0.472965	0.17316	0.48936300
H91	H	0.978719	0.379319	0.900663	0.41918800
H92	H	0.999279	0.601108	0.97877	0.43655600
H93	H	0.972689	0.592419	0.90193	0.43889400
H94	H	0.026794	0.472648	0.743727	0.43458200
H95	H	0.021436	0.551889	0.735042	0.41612700
H96	H	0.000435	0.491469	0.755127	0.43479800
H97	H	0.537656	0.367455	0.116466	0.11420600
H98	H	0.459436	0.630582	0.121351	0.11389900
H99	H	0.632119	0.46214	0.118154	0.11504200
H100	H	0.370578	0.5404	0.123221	0.11421600
H101	H	0.44301	0.356456	0.25772	0.11449300
H102	H	0.554542	0.641552	0.261037	0.11293300
H103	H	0.644238	0.557461	0.258444	0.11315000
H104	H	0.357723	0.44456	0.262726	0.11149100
H105	H	0.446722	0.308074	0.345235	0.11685000
H106	H	0.55447	0.693657	0.34222	0.11684500
H107	H	0.694853	0.555613	0.341556	0.11673100
H108	H	0.306973	0.446436	0.345476	0.11732800
H109	H	0.541688	0.318813	0.202473	0.11053400
H110	H	0.459029	0.682919	0.201267	0.11093400
H111	H	0.682917	0.459859	0.200181	0.10985500
H112	H	0.319375	0.542421	0.204282	0.11058400
H113	H	0.459665	0.629341	0.877624	0.11436800
H114	H	0.537675	0.367743	0.882087	0.11500200
H115	H	0.369162	0.540371	0.879192	0.11430200
H116	H	0.633051	0.462602	0.883957	0.11420100
H117	H	0.555528	0.642273	0.737877	0.11160900
H118	H	0.442203	0.355244	0.741375	0.11241100
H119	H	0.358375	0.445512	0.739144	0.11367400
H120	H	0.644348	0.55723	0.74228	0.11443600
H121	H	0.553612	0.692994	0.655247	0.11703400
H122	H	0.444213	0.30461	0.658806	0.11665500
H123	H	0.306028	0.445397	0.658444	0.11677800
H124	H	0.692833	0.553477	0.655368	0.11688000
H125	H	0.457594	0.680552	0.796562	0.11080100
H126	H	0.540044	0.316879	0.800663	0.10999100
H127	H	0.316642	0.54066	0.799578	0.11086900
H128	H	0.681867	0.45856	0.798372	0.11004000
H129	H	0.54304	0.599665	0.002654	0.49157600
H130	H	0.527019	0.470598	0.172738	0.48824800
H131	H	0.40752	0.380329	0.901568	0.43922300
H132	H	0.398813	0.398227	0.978468	0.43644000
H133	H	0.620785	0.59929	0.900422	0.41989300
H134	H	0.508517	0.509021	0.754885	0.43464100
H135	H	0.448055	0.469588	0.734741	0.41649600
H136	H	0.527355	0.55417	0.743546	0.43434600
H137	H	0.40024	0.45703	0.997346	0.49219800
H138	H	0.529419	0.472994	0.82684	0.48904400
H139	H	0.400521	0.37929	0.099337	0.41933400
H140	H	0.601895	0.601137	0.02123	0.43663100
H141	H	0.619789	0.592448	0.09807	0.43882900
H142	H	0.445833	0.472648	0.256273	0.43435700
H143	H	0.530492	0.551889	0.264958	0.41597700
H144	H	0.491028	0.491469	0.244873	0.43470500
H145	H	0.831145	0.498744	0.571773	0.11086200
H146	H	0.495661	0.247828	0.218396	0.11151100
H147	H	0.332401	0.831153	0.571773	0.11089100
H148	H	0.247838	0.495655	0.218396	0.11182000
H149	H	0.501256	0.332409	0.571773	0.11123900
H150	H	0.752178	0.247828	0.218396	0.11141300
H151	H	0.168854	0.501256	0.571773	0.10713300
H152	H	0.504339	0.752172	0.218396	0.11146500
H153	H	0.667599	0.168846	0.571773	0.10710500
H154	H	0.752161	0.504344	0.218396	0.11103700
H155	H	0.498744	0.66759	0.571773	0.10734400
H156	H	0.247822	0.752172	0.218396	0.11139600
H157	H	0.501249	0.168846	0.428227	0.10730200
H158	H	0.752161	0.504344	0.781604	0.11111600
H159	H	0.332402	0.501256	0.428227	0.10724500
H160	H	0.247822	0.752172	0.781604	0.11155000
H161	H	0.831153	0.332409	0.428227	0.11127600
H162	H	0.495661	0.247828	0.781604	0.11144500
H163	H	0.498751	0.831153	0.428227	0.11127900
H164	H	0.247838	0.495655	0.781604	0.11190900
H165	H	0.667598	0.498744	0.428227	0.11090800
H166	H	0.752178	0.247828	0.781604	0.11165200
H167	H	0.168847	0.66759	0.428227	0.10729300
H168	H	0.504339	0.752172	0.781604	0.11150100
H169	H	0.168854	0.501256	0.428227	0.10838600
H170	H	0.667599	0.168846	0.428227	0.10855000
H171	H	0.498744	0.66759	0.428227	0.10848200
H172	H	0.831145	0.498744	0.428227	0.10964200
H173	H	0.332401	0.831153	0.428227	0.10964600
H174	H	0.501256	0.332409	0.428227	0.10920800
H175	H	0.498751	0.831153	0.571773	0.10926400
H176	H	0.667598	0.498744	0.571773	0.10970500
H177	H	0.168847	0.66759	0.571773	0.10841900
H178	H	0.501249	0.168846	0.571773	0.10842900
H179	H	0.332402	0.501256	0.571773	0.10850900
H180	H	0.831153	0.332409	0.571773	0.10926800
Zr1	Zr	0.536144	0.072284	0	2.62550500
Zr2	Zr	0.546706	0.999191	0.897105	2.62996500
Zr3	Zr	0.543097	0.000779	0.11351	2.63105800
Zr4	Zr	0.452442	0.999105	0.103197	2.62951400
Zr5	Zr	0.463711	0.927427	0.000362	2.62823900
Zr6	Zr	0.457654	0.000722	0.886731	2.63038100
Zr7	Zr	0.072332	0.536156	0	2.62542100
Zr8	Zr	0.999188	0.452527	0.897105	2.62997700
Zr9	Zr	0.000787	0.457723	0.11351	2.63116400
Zr10	Zr	0.999103	0.546606	0.103197	2.62888900
Zr11	Zr	0.92737	0.463699	0.000362	2.62850400
Zr12	Zr	0.000728	0.543056	0.886731	2.63102000
Zr13	Zr	0.463826	0.536156	0	2.62530400
Zr14	Zr	0.453314	0.452498	0.102895	2.62994600
Zr15	Zr	0.456915	0.457694	0.88649	2.63086000
Zr16	Zr	0.547553	0.546635	0.896803	2.62955000
Zr17	Zr	0.536316	0.463728	0.999638	2.62833000
Zr18	Zr	0.542335	0.543056	0.113269	2.63026300
O1	O	0.521552	0.969371	0.003257	-1.31332500
O2	O	0.481813	0.895903	0.085947	-0.69634900
O3	O	0.41171	0.895903	0.079674	-0.69612800
O4	O	0.484223	0.896019	0.920808	-0.69536800
O5	O	0.537081	0.940706	0.854041	-0.71773600
O6	O	0.534632	0.001212	0.760495	-0.86652400
O7	O	0.590209	0.058832	0.840953	-0.71567700
O8	O	0.469772	0.05964	0.839505	-0.71673300
O9	O	0.587216	0.103952	0.917732	-0.69366800
O10	O	0.519128	0.104327	0.914656	-0.69601400
O11	O	0.585217	0.104356	0.085283	-0.69607400
O12	O	0.516695	0.103865	0.082027	-0.69386400
O13	O	0.468614	0.058774	0.158987	-0.71605800
O14	O	0.589856	0.059727	0.160555	-0.71675500
O15	O	0.514079	0.030686	0.089505	-1.31274100
O16	O	0.572117	0.040126	0.003559	-1.18988800
O17	O	0.598909	0.00052	0.923824	-1.01217500
O18	O	0.598415	0.998383	0.082449	-0.86882300
O19	O	0.399913	0.998325	0.917853	-0.86823100
O20	O	0.516645	0.030715	0.910555	-1.31321500
O21	O	0.481386	0.9597	0.874668	-1.18567500
O22	O	0.404879	0.94085	0.852352	-0.71544200
O23	O	0.467937	0.999422	0.762364	-1.01167100
O24	O	0.414137	0.895903	0.914717	-0.69569000
O25	O	0.531503	0.999509	0.237937	-1.01243100
O26	O	0.466571	0.001241	0.239686	-0.86580300
O27	O	0.478309	0.9597	0.125754	-1.18721300
O28	O	0.536052	0.94085	0.148251	-0.71578500
O29	O	0.403454	0.940504	0.146441	-0.71732100
O30	O	0.401539	0.000375	0.076538	-1.01246800
O31	O	0.467971	0.040039	0.996562	-1.18910100
O32	O	0.447793	0.969313	0.997165	-1.31336200
O33	O	0.969363	0.447822	0.003257	-1.31338200
O34	O	0.895835	0.414076	0.085947	-0.69642200
O35	O	0.895826	0.484108	0.079674	-0.69627500
O36	O	0.895944	0.411795	0.920808	-0.69533300
O37	O	0.940643	0.403626	0.854041	-0.71685900
O38	O	0.001208	0.466614	0.760495	-0.86671400
O39	O	0.058891	0.468693	0.840953	-0.71626500
O40	O	0.059695	0.58985	0.839505	-0.71694800
O41	O	0.104021	0.516786	0.917732	-0.69410600
O42	O	0.104404	0.585202	0.914656	-0.69626400
O43	O	0.104434	0.519211	0.085283	-0.69588800
O44	O	0.10395	0.587194	0.082027	-0.69409700
O45	O	0.058813	0.590139	0.158987	-0.71601000
O46	O	0.059762	0.469934	0.160555	-0.71616100
O47	O	0.03073	0.516613	0.089505	-1.31259700
O48	O	0.040159	0.468058	0.003559	-1.18970200
O49	O	0.000521	0.401691	0.923824	-1.01165600
O50	O	0.998397	0.400046	0.082449	-0.86811000
O51	O	0.998342	0.598337	0.917853	-0.86833700
O52	O	0.030734	0.514073	0.910555	-1.31332300
O53	O	0.959673	0.478306	0.874668	-1.18565200
O54	O	0.940829	0.535897	0.852352	-0.71566500
O55	O	0.999439	0.53148	0.762364	-1.01192500
O56	O	0.895828	0.481712	0.914717	-0.69486100
O57	O	0.999514	0.468029	0.237937	-1.01284000
O58	O	0.001254	0.534655	0.239686	-0.86608500
O59	O	0.959678	0.481366	0.125754	-1.18775200
O60	O	0.9408	0.404838	0.148251	-0.71513600
O61	O	0.940452	0.536994	0.146441	-0.71632500
O62	O	0.000385	0.59877	0.076538	-1.01212500
O63	O	0.040074	0.572039	0.996562	-1.18882700
O64	O	0.969298	0.521492	0.997165	-1.31385000
O65	O	0.478445	0.447822	0.996743	-1.31314900
O66	O	0.518216	0.414104	0.914053	-0.69634400
O67	O	0.588299	0.484166	0.920326	-0.69625300
O68	O	0.515824	0.411824	0.079192	-0.69565600
O69	O	0.462949	0.403654	0.145959	-0.71745600
O70	O	0.465381	0.466614	0.239505	-0.86639400
O71	O	0.409789	0.468664	0.159047	-0.71590300
O72	O	0.530198	0.58985	0.160495	-0.71638000
O73	O	0.412738	0.516757	0.082268	-0.69391800
O74	O	0.480822	0.585173	0.085344	-0.69669400
O75	O	0.414752	0.519182	0.914717	-0.69613400
O76	O	0.48327	0.587165	0.917973	-0.69407500
O77	O	0.531368	0.590139	0.841074	-0.71619500
O78	O	0.410135	0.469905	0.839445	-0.71562500
O79	O	0.485896	0.516613	0.910495	-1.31257200
O80	O	0.42786	0.468029	0.996441	-1.18984200
O81	O	0.401107	0.401663	0.076176	-1.01173500
O82	O	0.401624	0.400046	0.917551	-0.86853800
O83	O	0.600058	0.598366	0.082147	-0.86830200
O84	O	0.483349	0.514073	0.089445	-1.31289300
O85	O	0.518617	0.478306	0.125332	-1.18589400
O86	O	0.595109	0.535925	0.147648	-0.71590800
O87	O	0.532064	0.53148	0.237636	-1.01173500
O88	O	0.585885	0.481741	0.085283	-0.69498000
O89	O	0.468491	0.468029	0.762063	-1.01275300
O90	O	0.533403	0.534655	0.760314	-0.86622000
O91	O	0.521689	0.481395	0.874246	-1.18767800
O92	O	0.463992	0.404838	0.851749	-0.71557300
O93	O	0.596559	0.537022	0.853558	-0.71670000
O94	O	0.598434	0.59877	0.923462	-1.01271600
O95	O	0.531993	0.572039	0.003438	-1.18928500
O96	O	0.552224	0.52152	0.002835	-1.31338500
