data_I
_audit_creation_method         'generated by CrystalMaker X for Windows'
_cell_length_a                  24.057000
_cell_length_b                  24.057000
_cell_length_c                  26.996000
_cell_angle_alpha               90.000000
_cell_angle_beta                90.000000
_cell_angle_gamma              120.000000

_symmetry_space_group_name_H-M     'P 1'

loop_
_symmetry_equiv_pos_as_xyz
'+x,+y,+z'

loop_
_atom_site_label
_atom_site_type_symbol
_atom_site_occupancy
_atom_site_fract_x
_atom_site_fract_y
_atom_site_fract_z
 C7  C 1.0  0.4877  0.34584  0.09106
 C8  C 1.0  0.4532  0.27333  0.09428
 C9  C 1.0  0.42618  0.23695  0.05099
 C11  C 1.0  0.4458  0.24208  0.13816
 C13  C 1.0  0.41248  0.1755  0.1397
 C15  C 1.0  0.3837  0.1394  0.09776
 C16  C 1.0  0.3936  0.17184  0.05329
 C18  C 1.0  0.34415  0.0678  0.0992
 C19  C 1.0  0.36143  0.03123  0.12795
 C21  C 1.0  0.32598  0.96419  0.12539
 C23  C 1.0  0.27373  0.93264  0.09423
 C24  C 1.0  0.25564  0.96995  0.06694
 C26  C 1.0  0.29003  0.03602  0.06944
 C28  C 1.0  0.23843  0.86207  0.08916
 C29  C 1.0  0.17178  0.82822  0.0833
 C31  C 1.0  0.27162  0.82833  0.08888
 C33  C 1.0  0.23855  0.76145  0.0833
 C34  C 1.0  0.2745  0.7255  0.0833
 C35  C 1.0  0.33013  0.74699  0.1108
 C37  C 1.0  0.3634  0.71332  0.11057
 C39  C 1.0  0.34212  0.65788  0.0833
 C40  C 1.0  0.37772  0.62228  0.0833
 C41  C 1.0  0.41267  0.62256  0.12458
 C43  C 1.0  0.48159  0.51841  0.0833
 C44  C 1.0  0.44576  0.55424  0.0833
 C45  C 1.0  0.44591  0.58901  0.12588
 C47  C 1.0  0.50502  0.48319  0.87528
 C48  C 1.0  0.44964  0.43649  0.85602
 C50  C 1.0  0.53379  0.48932  0.92589
 C123  C 1.0  0.65416  0.14186  0.75773
 C124  C 1.0  0.85814  0.5123  0.42439
 C125  C 1.0  0.5123  0.65416  0.59106
 C126  C 1.0  0.34584  0.85814  0.25773
 C127  C 1.0  0.14186  0.4877  0.92439
 C128  C 1.0  0.34584  0.4877  0.57561
 C129  C 1.0  0.14186  0.65416  0.90894
 C130  C 1.0  0.5123  0.85814  0.24227
 C131  C 1.0  0.65416  0.5123  0.07561
 C132  C 1.0  0.85814  0.34584  0.40894
 C133  C 1.0  0.4877  0.14186  0.74227
 C134  C 1.0  0.72667  0.17987  0.76095
 C135  C 1.0  0.82013  0.5468  0.42761
 C136  C 1.0  0.5468  0.72667  0.59428
 C137  C 1.0  0.27333  0.82013  0.26095
 C138  C 1.0  0.17987  0.4532  0.92761
 C139  C 1.0  0.27333  0.4532  0.57239
 C140  C 1.0  0.17987  0.72667  0.90572
 C141  C 1.0  0.5468  0.82013  0.23905
 C142  C 1.0  0.72667  0.5468  0.07239
 C143  C 1.0  0.82013  0.27333  0.40572
 C144  C 1.0  0.4532  0.17987  0.73905
 C145  C 1.0  0.76305  0.18923  0.71766
 C146  C 1.0  0.81077  0.57382  0.38432
 C147  C 1.0  0.57382  0.76305  0.55099
 C148  C 1.0  0.23695  0.81077  0.21766
 C149  C 1.0  0.18923  0.42618  0.88432
 C150  C 1.0  0.23695  0.42618  0.61568
 C151  C 1.0  0.18923  0.76305  0.94901
 C152  C 1.0  0.57382  0.81077  0.28234
 C153  C 1.0  0.76305  0.57382  0.11568
 C154  C 1.0  0.81077  0.23695  0.44901
 C155  C 1.0  0.42618  0.18923  0.78234
 C167  C 1.0  0.75792  0.20372  0.80483
 C168  C 1.0  0.79628  0.5542  0.47149
 C169  C 1.0  0.5542  0.75792  0.63816
 C170  C 1.0  0.24208  0.79628  0.30483
 C171  C 1.0  0.20372  0.4458  0.97149
 C172  C 1.0  0.24208  0.4458  0.52851
 C173  C 1.0  0.20372  0.75792  0.86184
 C174  C 1.0  0.5542  0.79628  0.19517
 C175  C 1.0  0.75792  0.5542  0.02851
 C176  C 1.0  0.79628  0.24208  0.36184
 C177  C 1.0  0.4458  0.20372  0.69517
 C189  C 1.0  0.8245  0.23698  0.80637
 C190  C 1.0  0.76302  0.58752  0.47303
 C191  C 1.0  0.58752  0.8245  0.6397
 C192  C 1.0  0.1755  0.76302  0.30637
 C193  C 1.0  0.23698  0.41248  0.97303
 C194  C 1.0  0.1755  0.41248  0.52697
 C195  C 1.0  0.23698  0.8245  0.8603
 C196  C 1.0  0.58752  0.76302  0.19363
 C197  C 1.0  0.8245  0.58752  0.02697
 C198  C 1.0  0.76302  0.1755  0.3603
 C199  C 1.0  0.41248  0.23698  0.69363
 C211  C 1.0  0.8606  0.2443  0.76443
 C212  C 1.0  0.7557  0.6163  0.43109
 C213  C 1.0  0.6163  0.8606  0.59776
 C214  C 1.0  0.1394  0.7557  0.26443
 C215  C 1.0  0.2443  0.3837  0.93109
 C216  C 1.0  0.1394  0.3837  0.56891
 C217  C 1.0  0.2443  0.8606  0.90224
 C218  C 1.0  0.6163  0.7557  0.23557
 C219  C 1.0  0.8606  0.6163  0.06891
 C220  C 1.0  0.7557  0.1394  0.40224
 C221  C 1.0  0.3837  0.2443  0.73557
 C222  C 1.0  0.82816  0.22176  0.71996
 C223  C 1.0  0.77824  0.6064  0.38662
 C224  C 1.0  0.6064  0.82816  0.55329
 C225  C 1.0  0.17184  0.77824  0.21996
 C226  C 1.0  0.22176  0.3936  0.88662
 C227  C 1.0  0.17184  0.3936  0.61338
 C228  C 1.0  0.22176  0.82816  0.94671
 C229  C 1.0  0.6064  0.77824  0.28004
 C230  C 1.0  0.82816  0.6064  0.11338
 C231  C 1.0  0.77824  0.17184  0.44671
 C232  C 1.0  0.3936  0.22176  0.78004
 C244  C 1.0  0.9322  0.27635  0.76587
 C245  C 1.0  0.72365  0.65585  0.43253
 C246  C 1.0  0.65585  0.9322  0.5992
 C247  C 1.0  0.0678  0.72365  0.26587
 C248  C 1.0  0.27635  0.34415  0.93253
 C249  C 1.0  0.0678  0.34415  0.56747
 C250  C 1.0  0.27635  0.9322  0.9008
 C251  C 1.0  0.65585  0.72365  0.23413
 C252  C 1.0  0.9322  0.65585  0.06747
 C253  C 1.0  0.72365  0.0678  0.4008
 C254  C 1.0  0.34415  0.27635  0.73413
 C255  C 1.0  0.96877  0.3302  0.79462
 C256  C 1.0  0.6698  0.63857  0.46128
 C257  C 1.0  0.63857  0.96877  0.62795
 C258  C 1.0  0.03123  0.6698  0.29462
 C259  C 1.0  0.3302  0.36143  0.96128
 C260  C 1.0  0.03123  0.36143  0.53872
 C261  C 1.0  0.3302  0.96877  0.87205
 C262  C 1.0  0.63857  0.6698  0.20538
 C263  C 1.0  0.96877  0.63857  0.03872
 C264  C 1.0  0.6698  0.03123  0.37205
 C265  C 1.0  0.36143  0.3302  0.70538
 C277  C 1.0  0.03581  0.36179  0.79206
 C278  C 1.0  0.63821  0.67402  0.45872
 C279  C 1.0  0.67402  0.03581  0.62539
 C280  C 1.0  0.96419  0.63821  0.29206
 C281  C 1.0  0.36179  0.32598  0.95872
 C282  C 1.0  0.96419  0.32598  0.54128
 C283  C 1.0  0.36179  0.03581  0.87461
 C284  C 1.0  0.67402  0.63821  0.20794
 C285  C 1.0  0.03581  0.67402  0.04128
 C286  C 1.0  0.63821  0.96419  0.37461
 C287  C 1.0  0.32598  0.36179  0.70794
 C299  C 1.0  0.06736  0.34109  0.7609
 C300  C 1.0  0.65891  0.72627  0.42756
 C301  C 1.0  0.72627  0.06736  0.59423
 C302  C 1.0  0.93264  0.65891  0.2609
 C303  C 1.0  0.34109  0.27373  0.92756
 C304  C 1.0  0.93264  0.27373  0.57244
 C305  C 1.0  0.34109  0.06736  0.90577
 C306  C 1.0  0.72627  0.65891  0.2391
 C307  C 1.0  0.06736  0.72627  0.07244
 C308  C 1.0  0.65891  0.93264  0.40577
 C309  C 1.0  0.27373  0.34109  0.7391
 C310  C 1.0  0.03005  0.28569  0.73361
 C311  C 1.0  0.71431  0.74436  0.40027
 C312  C 1.0  0.74436  0.03005  0.56694
 C313  C 1.0  0.96995  0.71431  0.23361
 C314  C 1.0  0.28569  0.25564  0.90027
 C315  C 1.0  0.96995  0.25564  0.59973
 C316  C 1.0  0.28569  0.03005  0.93306
 C317  C 1.0  0.74436  0.71431  0.26639
 C318  C 1.0  0.03005  0.74436  0.09973
 C319  C 1.0  0.71431  0.96995  0.43306
 C320  C 1.0  0.25564  0.28569  0.76639
 C332  C 1.0  0.96398  0.25401  0.73611
 C333  C 1.0  0.74599  0.70997  0.40277
 C334  C 1.0  0.70997  0.96398  0.56944
 C335  C 1.0  0.03602  0.74599  0.23611
 C336  C 1.0  0.25401  0.29003  0.90277
 C337  C 1.0  0.03602  0.29003  0.59723
 C338  C 1.0  0.25401  0.96398  0.93056
 C339  C 1.0  0.70997  0.74599  0.26389
 C340  C 1.0  0.96398  0.70997  0.09723
 C341  C 1.0  0.74599  0.03602  0.43056
 C342  C 1.0  0.29003  0.25401  0.76389
 C354  C 1.0  0.13793  0.37636  0.75583
 C355  C 1.0  0.62364  0.76157  0.42249
 C356  C 1.0  0.76157  0.13793  0.58916
 C357  C 1.0  0.86207  0.62364  0.25583
 C358  C 1.0  0.37636  0.23843  0.92249
 C359  C 1.0  0.86207  0.23843  0.57751
 C360  C 1.0  0.37636  0.13793  0.91084
 C361  C 1.0  0.76157  0.62364  0.24417
 C362  C 1.0  0.13793  0.76157  0.07751
 C363  C 1.0  0.62364  0.86207  0.41084
 C364  C 1.0  0.23843  0.37636  0.74417
 C365  C 1.0  0.17178  0.34356  0.74997
 C366  C 1.0  0.65644  0.82822  0.41663
 C367  C 1.0  0.82822  0.17178  0.5833
 C368  C 1.0  0.82822  0.65644  0.24997
 C369  C 1.0  0.34356  0.17178  0.91663
 C379  C 1.0  0.17167  0.44329  0.75555
 C380  C 1.0  0.55671  0.72838  0.42221
 C381  C 1.0  0.72838  0.17167  0.58888
 C382  C 1.0  0.82833  0.55671  0.25555
 C383  C 1.0  0.44329  0.27162  0.92221
 C384  C 1.0  0.82833  0.27162  0.57779
 C385  C 1.0  0.44329  0.17167  0.91112
 C386  C 1.0  0.72838  0.55671  0.24445
 C387  C 1.0  0.17167  0.72838  0.07779
 C388  C 1.0  0.55671  0.82833  0.41112
 C389  C 1.0  0.27162  0.44329  0.74445
 C401  C 1.0  0.23855  0.4771  0.74997
 C402  C 1.0  0.5229  0.76145  0.41663
 C403  C 1.0  0.76145  0.23855  0.5833
 C404  C 1.0  0.76145  0.5229  0.24997
 C405  C 1.0  0.4771  0.23855  0.91663
 C406  C 1.0  0.2745  0.549  0.74997
 C407  C 1.0  0.451  0.7255  0.41663
 C408  C 1.0  0.7255  0.2745  0.5833
 C409  C 1.0  0.7255  0.451  0.24997
 C410  C 1.0  0.549  0.2745  0.91663
 C411  C 1.0  0.25301  0.58314  0.77747
 C412  C 1.0  0.41686  0.66987  0.44413
 C413  C 1.0  0.66987  0.25301  0.6108
 C414  C 1.0  0.74699  0.41686  0.27747
 C415  C 1.0  0.58314  0.33013  0.94413
 C416  C 1.0  0.74699  0.33013  0.55587
 C417  C 1.0  0.58314  0.25301  0.8892
 C418  C 1.0  0.66987  0.41686  0.22253
 C419  C 1.0  0.25301  0.66987  0.05587
 C420  C 1.0  0.41686  0.74699  0.3892
 C421  C 1.0  0.33013  0.58314  0.72253
 C433  C 1.0  0.28668  0.65008  0.77724
 C434  C 1.0  0.34992  0.6366  0.4439
 C435  C 1.0  0.6366  0.28668  0.61057
 C436  C 1.0  0.71332  0.34992  0.27724
 C437  C 1.0  0.65008  0.3634  0.9439
 C438  C 1.0  0.71332  0.3634  0.5561
 C439  C 1.0  0.65008  0.28668  0.88943
 C440  C 1.0  0.6366  0.34992  0.22276
 C441  C 1.0  0.28668  0.6366  0.0561
 C442  C 1.0  0.34992  0.71332  0.38943
 C443  C 1.0  0.3634  0.65008  0.72276
 C455  C 1.0  0.34212  0.68424  0.74997
 C456  C 1.0  0.31576  0.65788  0.41663
 C457  C 1.0  0.65788  0.34212  0.5833
 C458  C 1.0  0.65788  0.31576  0.24997
 C459  C 1.0  0.68424  0.34212  0.91663
 C460  C 1.0  0.37772  0.75544  0.74997
 C461  C 1.0  0.24456  0.62228  0.41663
 C462  C 1.0  0.62228  0.37772  0.5833
 C463  C 1.0  0.62228  0.24456  0.24997
 C464  C 1.0  0.75544  0.37772  0.91663
 C465  C 1.0  0.37744  0.79011  0.79125
 C466  C 1.0  0.20989  0.58733  0.45791
 C467  C 1.0  0.58733  0.37744  0.62458
 C468  C 1.0  0.62256  0.20989  0.29125
 C469  C 1.0  0.79011  0.41267  0.95791
 C470  C 1.0  0.62256  0.41267  0.54209
 C471  C 1.0  0.79011  0.37744  0.87542
 C472  C 1.0  0.58733  0.20989  0.20875
 C473  C 1.0  0.37744  0.58733  0.04209
 C474  C 1.0  0.20989  0.62256  0.37542
 C475  C 1.0  0.41267  0.79011  0.70875
 C487  C 1.0  0.48159  0.96318  0.74997
 C488  C 1.0  0.03682  0.51841  0.41663
 C489  C 1.0  0.51841  0.48159  0.5833
 C490  C 1.0  0.51841  0.03682  0.24997
 C491  C 1.0  0.96318  0.48159  0.91663
 C492  C 1.0  0.44576  0.89152  0.74997
 C493  C 1.0  0.10848  0.55424  0.41663
 C494  C 1.0  0.55424  0.44576  0.5833
 C495  C 1.0  0.55424  0.10848  0.24997
 C496  C 1.0  0.89152  0.44576  0.91663
 C497  C 1.0  0.41099  0.8569  0.79255
 C498  C 1.0  0.1431  0.55409  0.45921
 C499  C 1.0  0.55409  0.41099  0.62588
 C500  C 1.0  0.58901  0.1431  0.29255
 C501  C 1.0  0.8569  0.44591  0.95921
 C502  C 1.0  0.58901  0.44591  0.54079
 C503  C 1.0  0.8569  0.41099  0.87412
 C504  C 1.0  0.55409  0.1431  0.20745
 C505  C 1.0  0.41099  0.55409  0.04079
 C506  C 1.0  0.1431  0.58901  0.37412
 C507  C 1.0  0.44591  0.8569  0.70745
 C519  C 1.0  0.51681  0.02183  0.54195
 C520  C 1.0  0.97817  0.49498  0.20861
 C521  C 1.0  0.49498  0.51681  0.37528
 C522  C 1.0  0.48319  0.97817  0.04195
 C523  C 1.0  0.02183  0.50502  0.70861
 C524  C 1.0  0.48319  0.50502  0.79139
 C525  C 1.0  0.02183  0.51681  0.12472
 C526  C 1.0  0.49498  0.97817  0.45805
 C527  C 1.0  0.51681  0.49498  0.29139
 C528  C 1.0  0.97817  0.48319  0.62472
 C529  C 1.0  0.50502  0.02183  0.95805
 C530  C 1.0  0.56351  0.01315  0.52269
 C531  C 1.0  0.98685  0.55036  0.18935
 C532  C 1.0  0.55036  0.56351  0.35602
 C533  C 1.0  0.43649  0.98685  0.02269
 C534  C 1.0  0.01315  0.44964  0.68935
 C535  C 1.0  0.43649  0.44964  0.81065
 C536  C 1.0  0.01315  0.56351  0.14398
 C537  C 1.0  0.55036  0.98685  0.47731
 C538  C 1.0  0.56351  0.55036  0.31065
 C539  C 1.0  0.98685  0.43649  0.64398
 C540  C 1.0  0.44964  0.01315  0.97731
 C552  C 1.0  0.51068  0.04447  0.59256
 C553  C 1.0  0.95553  0.46621  0.25922
 C554  C 1.0  0.46621  0.51068  0.42589
 C555  C 1.0  0.48932  0.95553  0.09256
 C556  C 1.0  0.04447  0.53379  0.75922
 C557  C 1.0  0.48932  0.53379  0.74078
 C558  C 1.0  0.04447  0.51068  0.07411
 C559  C 1.0  0.46621  0.95553  0.40744
 C560  C 1.0  0.51068  0.46621  0.24078
 C561  C 1.0  0.95553  0.48932  0.57411
 C562  C 1.0  0.53379  0.04447  0.90744
 H10  H 1.0  0.4307  0.2575  0.0209
 H12  H 1.0  0.4631  0.2655  0.1671
 H14  H 1.0  0.4094  0.1548  0.1695
 H17  H 1.0  0.3775  0.1484  0.0242
 H20  H 1.0  0.3966  0.0512  0.149
 H22  H 1.0  0.3379  0.9402  0.1452
 H25  H 1.0  0.2197  0.95  0.0466
 H27  H 1.0  0.2767  0.0598  0.0508
 H30  H 1.0  0.1495  0.8505  0.0833
 H32  H 1.0  0.316  0.8504  0.0924
 H36  H 1.0  0.3455  0.7842  0.1296
 H38  H 1.0  0.4007  0.7286  0.1292
 H42  H 1.0  0.4138  0.6461  0.1523
 H46  H 1.0  0.468  0.5894  0.1543
 H49  H 1.0  0.4228  0.3985  0.8727
 H156  H 1.0  0.7425  0.1732  0.68757
 H157  H 1.0  0.8268  0.5693  0.35423
 H158  H 1.0  0.5693  0.7425  0.5209
 H159  H 1.0  0.2575  0.8268  0.18757
 H160  H 1.0  0.1732  0.4307  0.85423
 H161  H 1.0  0.2575  0.4307  0.64577
 H162  H 1.0  0.1732  0.7425  0.9791
 H163  H 1.0  0.5693  0.8268  0.31243
 H164  H 1.0  0.7425  0.5693  0.14577
 H165  H 1.0  0.8268  0.2575  0.4791
 H166  H 1.0  0.4307  0.1732  0.81243
 H178  H 1.0  0.7345  0.1976  0.83377
 H179  H 1.0  0.8024  0.5369  0.50043
 H180  H 1.0  0.5369  0.7345  0.6671
 H181  H 1.0  0.2655  0.8024  0.33377
 H182  H 1.0  0.1976  0.4631  0.00043
 H183  H 1.0  0.2655  0.4631  0.49957
 H184  H 1.0  0.1976  0.7345  0.8329
 H185  H 1.0  0.5369  0.8024  0.16623
 H186  H 1.0  0.7345  0.5369  0.99957
 H187  H 1.0  0.8024  0.2655  0.3329
 H188  H 1.0  0.4631  0.1976  0.66623
 H200  H 1.0  0.8452  0.2546  0.83617
 H201  H 1.0  0.7454  0.5906  0.50283
 H202  H 1.0  0.5906  0.8452  0.6695
 H203  H 1.0  0.1548  0.7454  0.33617
 H204  H 1.0  0.2546  0.4094  0.00283
 H205  H 1.0  0.1548  0.4094  0.49717
 H206  H 1.0  0.2546  0.8452  0.8305
 H207  H 1.0  0.5906  0.7454  0.16383
 H208  H 1.0  0.8452  0.5906  0.99717
 H209  H 1.0  0.7454  0.1548  0.3305
 H210  H 1.0  0.4094  0.2546  0.66383
 H233  H 1.0  0.8516  0.2291  0.69087
 H234  H 1.0  0.7709  0.6225  0.35753
 H235  H 1.0  0.6225  0.8516  0.5242
 H236  H 1.0  0.1484  0.7709  0.19087
 H237  H 1.0  0.2291  0.3775  0.85753
 H238  H 1.0  0.1484  0.3775  0.64247
 H239  H 1.0  0.2291  0.8516  0.9758
 H240  H 1.0  0.6225  0.7709  0.30913
 H241  H 1.0  0.8516  0.6225  0.14247
 H242  H 1.0  0.7709  0.1484  0.4758
 H243  H 1.0  0.3775  0.2291  0.80913
 H266  H 1.0  0.9488  0.3454  0.81567
 H267  H 1.0  0.6546  0.6034  0.48233
 H268  H 1.0  0.6034  0.9488  0.649
 H269  H 1.0  0.0512  0.6546  0.31567
 H270  H 1.0  0.3454  0.3966  0.98233
 H271  H 1.0  0.0512  0.3966  0.51767
 H272  H 1.0  0.3454  0.9488  0.851
 H273  H 1.0  0.6034  0.6546  0.18433
 H274  H 1.0  0.9488  0.6034  0.01767
 H275  H 1.0  0.6546  0.0512  0.351
 H276  H 1.0  0.3966  0.3454  0.68433
 H288  H 1.0  0.0598  0.3977  0.81187
 H289  H 1.0  0.6023  0.6621  0.47853
 H290  H 1.0  0.6621  0.0598  0.6452
 H291  H 1.0  0.9402  0.6023  0.31187
 H292  H 1.0  0.3977  0.3379  0.97853
 H293  H 1.0  0.9402  0.3379  0.52147
 H294  H 1.0  0.3977  0.0598  0.8548
 H295  H 1.0  0.6621  0.6023  0.18813
 H296  H 1.0  0.0598  0.6621  0.02147
 H297  H 1.0  0.6023  0.9402  0.3548
 H298  H 1.0  0.3379  0.3977  0.68813
 H321  H 1.0  0.05  0.2697  0.71327
 H322  H 1.0  0.7303  0.7803  0.37993
 H323  H 1.0  0.7803  0.05  0.5466
 H324  H 1.0  0.95  0.7303  0.21327
 H325  H 1.0  0.2697  0.2197  0.87993
 H326  H 1.0  0.95  0.2197  0.62007
 H327  H 1.0  0.2697  0.05  0.9534
 H328  H 1.0  0.7803  0.7303  0.28673
 H329  H 1.0  0.05  0.7803  0.12007
 H330  H 1.0  0.7303  0.95  0.4534
 H331  H 1.0  0.2197  0.2697  0.78673
 H343  H 1.0  0.9402  0.2169  0.71747
 H344  H 1.0  0.7831  0.7233  0.38413
 H345  H 1.0  0.7233  0.9402  0.5508
 H346  H 1.0  0.0598  0.7831  0.21747
 H347  H 1.0  0.2169  0.2767  0.88413
 H348  H 1.0  0.0598  0.2767  0.61587
 H349  H 1.0  0.2169  0.9402  0.9492
 H350  H 1.0  0.7233  0.7831  0.28253
 H351  H 1.0  0.9402  0.7233  0.11587
 H352  H 1.0  0.7831  0.0598  0.4492
 H353  H 1.0  0.2767  0.2169  0.78253
 H370  H 1.0  0.1495  0.299  0.74997
 H371  H 1.0  0.701  0.8505  0.41663
 H372  H 1.0  0.8505  0.1495  0.5833
 H373  H 1.0  0.8505  0.701  0.24997
 H374  H 1.0  0.299  0.1495  0.91663
 H390  H 1.0  0.1496  0.4656  0.75907
 H391  H 1.0  0.5344  0.684  0.42573
 H392  H 1.0  0.684  0.1496  0.5924
 H393  H 1.0  0.8504  0.5344  0.25907
 H394  H 1.0  0.4656  0.316  0.92573
 H395  H 1.0  0.8504  0.316  0.57427
 H396  H 1.0  0.4656  0.1496  0.9076
 H397  H 1.0  0.684  0.5344  0.24093
 H398  H 1.0  0.1496  0.684  0.07427
 H399  H 1.0  0.5344  0.8504  0.4076
 H400  H 1.0  0.316  0.4656  0.74093
 H422  H 1.0  0.2158  0.5613  0.79627
 H423  H 1.0  0.4387  0.6545  0.46293
 H424  H 1.0  0.6545  0.2158  0.6296
 H425  H 1.0  0.7842  0.4387  0.29627
 H426  H 1.0  0.5613  0.3455  0.96293
 H427  H 1.0  0.7842  0.3455  0.53707
 H428  H 1.0  0.5613  0.2158  0.8704
 H429  H 1.0  0.6545  0.4387  0.20373
 H430  H 1.0  0.2158  0.6545  0.03707
 H431  H 1.0  0.4387  0.7842  0.3704
 H432  H 1.0  0.3455  0.5613  0.70373
 H444  H 1.0  0.2714  0.6721  0.79587
 H445  H 1.0  0.3279  0.5993  0.46253
 H446  H 1.0  0.5993  0.2714  0.6292
 H447  H 1.0  0.7286  0.3279  0.29587
 H448  H 1.0  0.6721  0.4007  0.96253
 H449  H 1.0  0.7286  0.4007  0.53747
 H450  H 1.0  0.6721  0.2714  0.8708
 H451  H 1.0  0.5993  0.3279  0.20413
 H452  H 1.0  0.2714  0.5993  0.03747
 H453  H 1.0  0.3279  0.7286  0.3708
 H454  H 1.0  0.4007  0.6721  0.70413
 H476  H 1.0  0.3539  0.7677  0.81897
 H477  H 1.0  0.2323  0.5862  0.48563
 H478  H 1.0  0.5862  0.3539  0.6523
 H479  H 1.0  0.6461  0.2323  0.31897
 H480  H 1.0  0.7677  0.4138  0.98563
 H481  H 1.0  0.6461  0.4138  0.51437
 H482  H 1.0  0.7677  0.3539  0.8477
 H483  H 1.0  0.5862  0.2323  0.18103
 H484  H 1.0  0.3539  0.5862  0.01437
 H485  H 1.0  0.2323  0.6461  0.3477
 H486  H 1.0  0.4138  0.7677  0.68103
 H508  H 1.0  0.4106  0.8786  0.82097
 H509  H 1.0  0.1214  0.532  0.48763
 H510  H 1.0  0.532  0.4106  0.6543
 H511  H 1.0  0.5894  0.1214  0.32097
 H512  H 1.0  0.8786  0.468  0.98763
 H513  H 1.0  0.5894  0.468  0.51237
 H514  H 1.0  0.8786  0.4106  0.8457
 H515  H 1.0  0.532  0.1214  0.17903
 H516  H 1.0  0.4106  0.532  0.01237
 H517  H 1.0  0.1214  0.5894  0.3457
 H518  H 1.0  0.468  0.8786  0.67903
 H541  H 1.0  0.6015  0.0243  0.53937
 H542  H 1.0  0.9757  0.5772  0.20603
 H543  H 1.0  0.5772  0.6015  0.3727
 H544  H 1.0  0.3985  0.9757  0.03937
 H545  H 1.0  0.0243  0.4228  0.70603
 H546  H 1.0  0.3985  0.4228  0.79397
 H547  H 1.0  0.0243  0.6015  0.1273
 H548  H 1.0  0.5772  0.9757  0.46063
 H549  H 1.0  0.6015  0.5772  0.29397
 H550  H 1.0  0.9757  0.3985  0.6273
 H551  H 1.0  0.4228  0.0243  0.96063
 O2  O 1.0  0.51184  0.43904  0.95077
 O3  O 1.0  0.49334  0.36941  0.04965
 O4  O 1.0  0.62481  0.49346  0.03653
 O5  O 1.0  0.48471  0.4952  0.04318
 O6  O 1.0  0.5769  0.54038  0.94039
 O68  O 1.0  0.56096  0.0728  0.61744
 O69  O 1.0  0.9272  0.48816  0.2841
 O70  O 1.0  0.48816  0.56096  0.45077
 O71  O 1.0  0.43904  0.9272  0.11744
 O72  O 1.0  0.0728  0.51184  0.7841
 O73  O 1.0  0.43904  0.51184  0.7159
 O74  O 1.0  0.0728  0.56096  0.04923
 O75  O 1.0  0.48816  0.9272  0.38256
 O76  O 1.0  0.56096  0.48816  0.2159
 O77  O 1.0  0.9272  0.43904  0.54923
 O78  O 1.0  0.51184  0.0728  0.88256
 O79  O 1.0  0.63059  0.12393  0.71632
 O80  O 1.0  0.87607  0.50666  0.38298
 O81  O 1.0  0.50666  0.63059  0.54965
 O82  O 1.0  0.36941  0.87607  0.21632
 O83  O 1.0  0.12393  0.49334  0.88298
 O84  O 1.0  0.36941  0.49334  0.61702
 O85  O 1.0  0.12393  0.63059  0.95035
 O86  O 1.0  0.50666  0.87607  0.28368
 O87  O 1.0  0.63059  0.50666  0.11702
 O88  O 1.0  0.87607  0.36941  0.45035
 O89  O 1.0  0.49334  0.12393  0.78368
 O90  O 1.0  0.50654  0.13135  0.7032
 O91  O 1.0  0.86865  0.37519  0.36986
 O92  O 1.0  0.37519  0.50654  0.53653
 O93  O 1.0  0.49346  0.86865  0.2032
 O94  O 1.0  0.13135  0.62481  0.86986
 O95  O 1.0  0.49346  0.62481  0.63014
 O96  O 1.0  0.13135  0.50654  0.96347
 O97  O 1.0  0.37519  0.86865  0.2968
 O98  O 1.0  0.50654  0.37519  0.13014
 O99  O 1.0  0.86865  0.49346  0.46347
 O100  O 1.0  0.62481  0.13135  0.7968
 O101  O 1.0  0.5048  0.98951  0.70985
 O102  O 1.0  0.01049  0.51529  0.37651
 O103  O 1.0  0.51529  0.5048  0.54318
 O104  O 1.0  0.4952  0.01049  0.20985
 O105  O 1.0  0.98951  0.48471  0.87651
 O106  O 1.0  0.4952  0.48471  0.62349
 O107  O 1.0  0.98951  0.5048  0.95682
 O108  O 1.0  0.51529  0.01049  0.29015
 O109  O 1.0  0.5048  0.51529  0.12349
 O110  O 1.0  0.01049  0.4952  0.45682
 O111  O 1.0  0.48471  0.98951  0.79015
 O112  O 1.0  0.45962  0.03652  0.60706
 O113  O 1.0  0.96348  0.4231  0.27372
 O114  O 1.0  0.4231  0.45962  0.44039
 O115  O 1.0  0.54038  0.96348  0.10706
 O116  O 1.0  0.03652  0.5769  0.77372
 O117  O 1.0  0.54038  0.5769  0.72628
 O118  O 1.0  0.03652  0.45962  0.05961
 O119  O 1.0  0.4231  0.96348  0.39294
 O120  O 1.0  0.45962  0.4231  0.22628
 O121  O 1.0  0.96348  0.54038  0.55961
 O122  O 1.0  0.5769  0.03652  0.89294
 S1  S 1.0  0.5439  0.5439  0.833333333333
 S62  S 1.0  0.4561  0.0  0.49997
 S63  S 1.0  0.0  0.4561  0.166666666667
 S64  S 1.0  0.4561  0.4561  0.333333333333
 S65  S 1.0  0.5439  0.0  0.99997
 S66  S 1.0  0.0  0.5439  0.666666666667
 Zn0  Zn 1.0  0.53463  0.45653  0.02073
 Zn51  Zn 1.0  0.54347  0.0781  0.68739
 Zn52  Zn 1.0  0.9219  0.46537  0.35406
 Zn53  Zn 1.0  0.46537  0.54347  0.52073
 Zn54  Zn 1.0  0.45653  0.9219  0.18739
 Zn55  Zn 1.0  0.0781  0.53463  0.85406
 Zn56  Zn 1.0  0.45653  0.53463  0.64594
 Zn57  Zn 1.0  0.0781  0.54347  0.97927
 Zn58  Zn 1.0  0.46537  0.9219  0.31261
 Zn59  Zn 1.0  0.54347  0.46537  0.14594
 Zn60  Zn 1.0  0.9219  0.45653  0.47927
 Zn61  Zn 1.0  0.53463  0.0781  0.81261

